data_B60
_audit_creation_date              2023-10-20
_audit_creation_method            'Materials Studio'
_symmetry_space_group_name_H-M    'P1'
_symmetry_Int_Tables_number       1
_symmetry_cell_setting            triclinic
loop_
_symmetry_equiv_pos_as_xyz
  x,y,z
_cell_length_a                    13.8564
_cell_length_b                    13.8564
_cell_length_c                    30.0000
_cell_angle_alpha                 90.0000
_cell_angle_beta                  90.0000
_cell_angle_gamma                 120.0000
loop_
_atom_site_label
_atom_site_type_symbol
_atom_site_fract_x
_atom_site_fract_y
_atom_site_fract_z
_atom_site_U_iso_or_equiv
_atom_site_adp_type
_atom_site_occupancy
B1     B     0.12500   0.12500   0.00000   0.00000  Uiso   1.00
B2     B     0.25000   0.25000   0.00000   0.00000  Uiso   1.00
B3     B     0.37500   0.37500   0.00000   0.00000  Uiso   1.00
B4     B     0.87500  -0.00000   0.00000   0.00000  Uiso   1.00
B5     B     0.75000   0.00000   0.00000   0.00000  Uiso   1.00
B6     B     0.62500   0.00000   0.00000   0.00000  Uiso   1.00
B7     B     0.00000   0.87500   0.00000   0.00000  Uiso   1.00
B8     B    -0.00000   0.75000   0.00000   0.00000  Uiso   1.00
B9     B    -0.00000   0.62500   0.00000   0.00000  Uiso   1.00
B10    B     0.87500   0.87500   0.00000   0.00000  Uiso   1.00
B11    B     0.75000   0.75000   0.00000   0.00000  Uiso   1.00
B12    B     0.62500   0.62500   0.00000   0.00000  Uiso   1.00
B13    B     0.12500  -0.00000   0.00000   0.00000  Uiso   1.00
B14    B     0.25000   0.00000   0.00000   0.00000  Uiso   1.00
B15    B     0.37500   0.00000   0.00000   0.00000  Uiso   1.00
B16    B    -0.00000   0.12500   0.00000   0.00000  Uiso   1.00
B17    B    -0.00000   0.25000   0.00000   0.00000  Uiso   1.00
B18    B     0.00000   0.37500   0.00000   0.00000  Uiso   1.00
B19    B     0.25000   0.12500   0.00000   0.00000  Uiso   1.00
B20    B     0.50000   0.25000   0.00000   0.00000  Uiso   1.00
B21    B     0.87500   0.12500   0.00000   0.00000  Uiso   1.00
B22    B     0.75000   0.25000   0.00000   0.00000  Uiso   1.00
B23    B     0.87500   0.75000   0.00000   0.00000  Uiso   1.00
B24    B     0.75000   0.50000   0.00000   0.00000  Uiso   1.00
B25    B     0.75000   0.87500   0.00000   0.00000  Uiso   1.00
B26    B     0.50000   0.75000   0.00000   0.00000  Uiso   1.00
B27    B     0.12500   0.87500   0.00000   0.00000  Uiso   1.00
B28    B     0.25000   0.75000   0.00000   0.00000  Uiso   1.00
B29    B     0.12500   0.25000   0.00000   0.00000  Uiso   1.00
B30    B     0.25000   0.50000   0.00000   0.00000  Uiso   1.00
B31    B     0.37500   0.12500   0.00000   0.00000  Uiso   1.00
B32    B     0.50000   0.12500   0.00000   0.00000  Uiso   1.00
B33    B     0.87500   0.25000   0.00000   0.00000  Uiso   1.00
B34    B     0.87500   0.37500   0.00000   0.00000  Uiso   1.00
B35    B     0.75000   0.62500   0.00000   0.00000  Uiso   1.00
B36    B     0.62500   0.50000   0.00000   0.00000  Uiso   1.00
B37    B     0.62500   0.87500   0.00000   0.00000  Uiso   1.00
B38    B     0.50000   0.87500   0.00000   0.00000  Uiso   1.00
B39    B     0.12500   0.75000   0.00000   0.00000  Uiso   1.00
B40    B     0.12500   0.62500   0.00000   0.00000  Uiso   1.00
B41    B     0.25000   0.37500   0.00000   0.00000  Uiso   1.00
B42    B     0.37500   0.50000   0.00000   0.00000  Uiso   1.00
B43    B     0.12500   0.37500   0.00000   0.00000  Uiso   1.00
B44    B     0.12500   0.50000   0.00000   0.00000  Uiso   1.00
B45    B     0.25000   0.87500   0.00000   0.00000  Uiso   1.00
B46    B     0.37500   0.87500   0.00000   0.00000  Uiso   1.00
B47    B     0.62500   0.75000   0.00000   0.00000  Uiso   1.00
B48    B     0.50000   0.62500   0.00000   0.00000  Uiso   1.00
B49    B     0.87500   0.62500   0.00000   0.00000  Uiso   1.00
B50    B     0.87500   0.50000   0.00000   0.00000  Uiso   1.00
B51    B     0.75000   0.12500   0.00000   0.00000  Uiso   1.00
B52    B     0.62500   0.12500   0.00000   0.00000  Uiso   1.00
B53    B     0.37500   0.25000   0.00000   0.00000  Uiso   1.00
B54    B     0.50000   0.37500   0.00000   0.00000  Uiso   1.00
B55    B     0.62500   0.25000   0.00000   0.00000  Uiso   1.00
B56    B     0.75000   0.37500   0.00000   0.00000  Uiso   1.00
B57    B     0.62500   0.37500   0.00000   0.00000  Uiso   1.00
B58    B     0.37500   0.75000   0.00000   0.00000  Uiso   1.00
B59    B     0.25000   0.62500   0.00000   0.00000  Uiso   1.00
B60    B     0.37500   0.62500   0.00000   0.00000  Uiso   1.00
loop_
_geom_bond_atom_site_label_1
_geom_bond_atom_site_label_2
_geom_bond_distance
_geom_bond_site_symmetry_2
_ccdc_geom_bond_type
B1     B2      1.732   .     S
B1     B19     1.732   .     S
B1     B29     1.732   .     S
B1     B13     1.732   .     S
B1     B16     1.732   .     S
B2     B29     1.732   .     S
B2     B19     1.732   .     S
B2     B3      1.732   .     S
B2     B53     1.732   .     S
B2     B41     1.732   .     S
B3     B41     1.732   .     S
B3     B53     1.732   .     S
B3     B54     1.732   .     S
B3     B42     1.732   .     S
B4     B5      1.732   .     S
B4     B21     1.732   .     S
B4     B25     1.732   1_545 S
B4     B16     1.732   1_655 S
B4     B10     1.732   1_545 S
B5     B25     1.732   1_545 S
B5     B21     1.732   .     S
B5     B6      1.732   .     S
B5     B51     1.732   .     S
B5     B37     1.732   1_545 S
B6     B37     1.732   1_545 S
B6     B51     1.732   .     S
B6     B52     1.732   .     S
B6     B38     1.732   1_545 S
B7     B8      1.732   .     S
B7     B23     1.732   1_455 S
B7     B27     1.732   .     S
B7     B10     1.732   1_455 S
B7     B13     1.732   1_565 S
B8     B27     1.732   .     S
B8     B23     1.732   1_455 S
B8     B9      1.732   .     S
B8     B49     1.732   1_455 S
B8     B39     1.732   .     S
B9     B39     1.732   .     S
B9     B49     1.732   1_455 S
B9     B50     1.732   1_455 S
B9     B40     1.732   .     S
B10    B11     1.732   .     S
B10    B25     1.732   .     S
B10    B23     1.732   .     S
B10    B4      1.732   1_565 S
B10    B7      1.732   1_655 S
B11    B23     1.732   .     S
B11    B25     1.732   .     S
B11    B12     1.732   .     S
B11    B47     1.732   .     S
B11    B35     1.732   .     S
B12    B35     1.732   .     S
B12    B47     1.732   .     S
B12    B48     1.732   .     S
B12    B36     1.732   .     S
B13    B14     1.732   .     S
B13    B27     1.732   1_545 S
B13    B19     1.732   .     S
B13    B7      1.732   1_545 S
B14    B19     1.732   .     S
B14    B27     1.732   1_545 S
B14    B15     1.732   .     S
B14    B45     1.732   1_545 S
B14    B31     1.732   .     S
B15    B31     1.732   .     S
B15    B45     1.732   1_545 S
B15    B46     1.732   1_545 S
B15    B32     1.732   .     S
B16    B17     1.732   .     S
B16    B29     1.732   .     S
B16    B21     1.732   1_455 S
B16    B4      1.732   1_455 S
B17    B21     1.732   1_455 S
B17    B29     1.732   .     S
B17    B18     1.732   .     S
B17    B43     1.732   .     S
B17    B33     1.732   1_455 S
B18    B33     1.732   1_455 S
B18    B43     1.732   .     S
B18    B44     1.732   .     S
B18    B34     1.732   1_455 S
B19    B53     1.732   .     S
B19    B31     1.732   .     S
B20    B53     1.732   .     S
B20    B31     1.732   .     S
B20    B32     1.732   .     S
B20    B54     1.732   .     S
B20    B57     1.732   .     S
B20    B55     1.732   .     S
B21    B16     1.732   1_655 S
B21    B51     1.732   .     S
B21    B33     1.732   .     S
B21    B17     1.732   1_655 S
B22    B51     1.732   .     S
B22    B33     1.732   .     S
B22    B34     1.732   .     S
B22    B52     1.732   .     S
B22    B55     1.732   .     S
B22    B56     1.732   .     S
B23    B7      1.732   1_655 S
B23    B49     1.732   .     S
B23    B35     1.732   .     S
B23    B8      1.732   1_655 S
B24    B49     1.732   .     S
B24    B35     1.732   .     S
B24    B36     1.732   .     S
B24    B50     1.732   .     S
B24    B56     1.732   .     S
B24    B57     1.732   .     S
B25    B4      1.732   1_565 S
B25    B47     1.732   .     S
B25    B37     1.732   .     S
B25    B5      1.732   1_565 S
B26    B47     1.732   .     S
B26    B37     1.732   .     S
B26    B38     1.732   .     S
B26    B48     1.732   .     S
B26    B60     1.732   .     S
B26    B58     1.732   .     S
B27    B13     1.732   1_565 S
B27    B45     1.732   .     S
B27    B39     1.732   .     S
B27    B14     1.732   1_565 S
B28    B45     1.732   .     S
B28    B39     1.732   .     S
B28    B40     1.732   .     S
B28    B46     1.732   .     S
B28    B58     1.732   .     S
B28    B59     1.732   .     S
B29    B43     1.732   .     S
B29    B41     1.732   .     S
B30    B43     1.732   .     S
B30    B41     1.732   .     S
B30    B42     1.732   .     S
B30    B44     1.732   .     S
B30    B59     1.732   .     S
B30    B60     1.732   .     S
B31    B32     1.732   .     S
B31    B53     1.732   .     S
B32    B55     1.732   .     S
B32    B52     1.732   .     S
B33    B34     1.732   .     S
B33    B51     1.732   .     S
B33    B18     1.732   1_655 S
B33    B17     1.732   1_655 S
B34    B56     1.732   .     S
B34    B18     1.732   1_655 S
B34    B50     1.732   .     S
B35    B36     1.732   .     S
B35    B49     1.732   .     S
B36    B57     1.732   .     S
B36    B54     1.732   .     S
B37    B38     1.732   .     S
B37    B47     1.732   .     S
B37    B6      1.732   1_565 S
B37    B5      1.732   1_565 S
B38    B58     1.732   .     S
B38    B6      1.732   1_565 S
B38    B46     1.732   .     S
B39    B40     1.732   .     S
B39    B45     1.732   .     S
B40    B59     1.732   .     S
B40    B44     1.732   .     S
B41    B42     1.732   .     S
B41    B43     1.732   .     S
B42    B60     1.732   .     S
B42    B48     1.732   .     S
B43    B44     1.732   .     S
B44    B59     1.732   .     S
B45    B46     1.732   .     S
B45    B15     1.732   1_565 S
B45    B14     1.732   1_565 S
B46    B58     1.732   .     S
B46    B15     1.732   1_565 S
B47    B48     1.732   .     S
B48    B60     1.732   .     S
B49    B50     1.732   .     S
B49    B9      1.732   1_655 S
B49    B8      1.732   1_655 S
B50    B56     1.732   .     S
B50    B9      1.732   1_655 S
B51    B52     1.732   .     S
B52    B55     1.732   .     S
B53    B54     1.732   .     S
B54    B57     1.732   .     S
B55    B56     1.732   .     S
B55    B57     1.732   .     S
B56    B57     1.732   .     S
B58    B59     1.732   .     S
B58    B60     1.732   .     S
B59    B60     1.732   .     S
