data_beta12\opted-\Si\2
_audit_creation_date              2023-10-20
_audit_creation_method            'Materials Studio'
_symmetry_space_group_name_H-M    'P1'
_symmetry_Int_Tables_number       1
_symmetry_cell_setting            triclinic
loop_
_symmetry_equiv_pos_as_xyz
  x,y,z
_cell_length_a                    10.9464
_cell_length_b                    11.6911
_cell_length_c                    70.0000
_cell_angle_alpha                 90.0000
_cell_angle_beta                  90.0000
_cell_angle_gamma                 90.0000
loop_
_atom_site_label
_atom_site_type_symbol
_atom_site_fract_x
_atom_site_fract_y
_atom_site_fract_z
_atom_site_U_iso_or_equiv
_atom_site_adp_type
_atom_site_occupancy
Si1    Si    0.33333   0.16667   0.12947   0.00000  Uiso   1.00
Si2    Si    0.33333   0.16667   0.04923   0.00000  Uiso   1.00
Si3    Si    0.83333   0.16667   0.06967   0.00000  Uiso   1.00
Si4    Si    0.83333   0.16667   0.14992   0.00000  Uiso   1.00
Si5    Si    0.33333   0.33333   0.03000   0.00000  Uiso   1.00
Si6    Si    0.33333   0.33333   0.10988   0.00000  Uiso   1.00
Si7    Si    0.83333   0.33333   0.16914   0.00000  Uiso   1.00
Si8    Si    0.83333   0.33333   0.08927   0.00000  Uiso   1.00
B9     B     0.33186   0.12500   0.29557   0.00000  Uiso   1.00
B10    B     0.83186   0.12500   0.29557   0.00000  Uiso   1.00
B11    B     0.33186   0.37500   0.29557   0.00000  Uiso   1.00
B12    B     0.41471   0.25000   0.29557   0.00000  Uiso   1.00
B13    B     0.83186   0.37500   0.29557   0.00000  Uiso   1.00
B14    B     0.91471   0.25000   0.29557   0.00000  Uiso   1.00
Si15   Si    0.66667   0.83334   0.12947   0.00000  Uiso   1.00
Si16   Si    0.66667   0.83334   0.04923   0.00000  Uiso   1.00
Si17   Si    0.16667   0.83334   0.06967   0.00000  Uiso   1.00
Si18   Si    0.16667   0.83334   0.14992   0.00000  Uiso   1.00
Si19   Si    0.66667   0.66667   0.03000   0.00000  Uiso   1.00
Si20   Si    0.66667   0.66667   0.10988   0.00000  Uiso   1.00
Si21   Si    0.16667   0.66667   0.16914   0.00000  Uiso   1.00
Si22   Si    0.16667   0.66667   0.08927   0.00000  Uiso   1.00
B23    B     0.66814   0.87500   0.29557   0.00000  Uiso   1.00
B24    B     0.16814   0.87500   0.29557   0.00000  Uiso   1.00
B25    B     0.66814   0.62500   0.29557   0.00000  Uiso   1.00
B26    B     0.58529   0.75000   0.29557   0.00000  Uiso   1.00
B27    B     0.16814   0.62500   0.29557   0.00000  Uiso   1.00
B28    B     0.08529   0.75000   0.29557   0.00000  Uiso   1.00
Si29   Si    0.33333   0.83334   0.12947   0.00000  Uiso   1.00
Si30   Si    0.33333   0.83334   0.04923   0.00000  Uiso   1.00
Si31   Si    0.83333   0.83334   0.06967   0.00000  Uiso   1.00
Si32   Si    0.83333   0.83334   0.14992   0.00000  Uiso   1.00
Si33   Si    0.33333   0.66667   0.03000   0.00000  Uiso   1.00
Si34   Si    0.33333   0.66667   0.10988   0.00000  Uiso   1.00
Si35   Si    0.83333   0.66667   0.16914   0.00000  Uiso   1.00
Si36   Si    0.83333   0.66667   0.08927   0.00000  Uiso   1.00
B37    B     0.33186   0.87500   0.29557   0.00000  Uiso   1.00
B38    B     0.83186   0.87500   0.29557   0.00000  Uiso   1.00
B39    B     0.33186   0.62500   0.29557   0.00000  Uiso   1.00
B40    B     0.41471   0.75000   0.29557   0.00000  Uiso   1.00
B41    B     0.83186   0.62500   0.29557   0.00000  Uiso   1.00
B42    B     0.91471   0.75000   0.29557   0.00000  Uiso   1.00
Si43   Si    0.66667   0.16667   0.12947   0.00000  Uiso   1.00
Si44   Si    0.66667   0.16667   0.04923   0.00000  Uiso   1.00
Si45   Si    0.16667   0.16667   0.06967   0.00000  Uiso   1.00
Si46   Si    0.16667   0.16667   0.14992   0.00000  Uiso   1.00
Si47   Si    0.66667   0.33333   0.03000   0.00000  Uiso   1.00
Si48   Si    0.66667   0.33333   0.10988   0.00000  Uiso   1.00
Si49   Si    0.16667   0.33333   0.16914   0.00000  Uiso   1.00
Si50   Si    0.16667   0.33333   0.08927   0.00000  Uiso   1.00
B51    B     0.66814   0.12500   0.29557   0.00000  Uiso   1.00
B52    B     0.16814   0.12500   0.29557   0.00000  Uiso   1.00
B53    B     0.66814   0.37500   0.29557   0.00000  Uiso   1.00
B54    B     0.58529   0.25000   0.29557   0.00000  Uiso   1.00
B55    B     0.16814   0.37500   0.29557   0.00000  Uiso   1.00
B56    B     0.08529   0.25000   0.29557   0.00000  Uiso   1.00
Si57   Si    0.50000   0.16667   0.06967   0.00000  Uiso   1.00
Si58   Si    0.50000   0.16667   0.14992   0.00000  Uiso   1.00
Si59   Si    0.50000   0.33333   0.16914   0.00000  Uiso   1.00
Si60   Si    0.50000   0.33333   0.08927   0.00000  Uiso   1.00
B61    B     0.50000   0.12500   0.29557   0.00000  Uiso   1.00
B62    B     0.50000   0.37500   0.29557   0.00000  Uiso   1.00
Si63   Si    0.50000   0.83334   0.06967   0.00000  Uiso   1.00
Si64   Si    0.50000   0.83334   0.14992   0.00000  Uiso   1.00
Si65   Si    0.50000   0.66667   0.16914   0.00000  Uiso   1.00
Si66   Si    0.50000   0.66667   0.08927   0.00000  Uiso   1.00
B67    B     0.50000   0.87500   0.29557   0.00000  Uiso   1.00
B68    B     0.50000   0.62500   0.29557   0.00000  Uiso   1.00
Si69   Si    0.50000  -0.00000   0.16914   0.00000  Uiso   1.00
Si70   Si    0.50000  -0.00000   0.08927   0.00000  Uiso   1.00
Si71   Si    0.33333   0.00000   0.03000   0.00000  Uiso   1.00
Si72   Si    0.33333  -0.00000   0.10988   0.00000  Uiso   1.00
Si73   Si    0.83333  -0.00000   0.16914   0.00000  Uiso   1.00
Si74   Si    0.83333   0.00000   0.08927   0.00000  Uiso   1.00
B75    B     0.41471  -0.00000   0.29557   0.00000  Uiso   1.00
B76    B     0.91471  -0.00000   0.29557   0.00000  Uiso   1.00
Si77   Si    0.66667  -0.00000   0.03000   0.00000  Uiso   1.00
Si78   Si    0.66667  -0.00000   0.10988   0.00000  Uiso   1.00
Si79   Si    0.16667  -0.00000   0.16914   0.00000  Uiso   1.00
Si80   Si    0.16667  -0.00000   0.08927   0.00000  Uiso   1.00
B81    B     0.58529  -0.00000   0.29557   0.00000  Uiso   1.00
B82    B     0.08529  -0.00000   0.29557   0.00000  Uiso   1.00
Si83   Si   -0.00000   0.16667   0.12947   0.00000  Uiso   1.00
Si84   Si    0.00000   0.16667   0.04923   0.00000  Uiso   1.00
Si85   Si   -0.00000   0.33333   0.03000   0.00000  Uiso   1.00
Si86   Si   -0.00000   0.33333   0.10988   0.00000  Uiso   1.00
B87    B    -0.00000   0.12500   0.29557   0.00000  Uiso   1.00
B88    B    -0.00000   0.37500   0.29557   0.00000  Uiso   1.00
Si89   Si   -0.00000   0.83334   0.12947   0.00000  Uiso   1.00
Si90   Si   -0.00000   0.83334   0.04923   0.00000  Uiso   1.00
Si91   Si   -0.00000   0.66667   0.03000   0.00000  Uiso   1.00
Si92   Si   -0.00000   0.66667   0.10988   0.00000  Uiso   1.00
B93    B    -0.00000   0.87500   0.29557   0.00000  Uiso   1.00
B94    B    -0.00000   0.62500   0.29557   0.00000  Uiso   1.00
Si95   Si    0.00000   0.00000   0.03000   0.00000  Uiso   1.00
Si96   Si   -0.00000  -0.00000   0.10988   0.00000  Uiso   1.00
Si97   Si    0.33333   0.50000   0.12947   0.00000  Uiso   1.00
Si98   Si    0.33333   0.50000   0.04923   0.00000  Uiso   1.00
Si99   Si    0.83333   0.50000   0.06967   0.00000  Uiso   1.00
Si100  Si    0.83333   0.50000   0.14992   0.00000  Uiso   1.00
B101   B     0.41471   0.50000   0.29557   0.00000  Uiso   1.00
B102   B     0.91471   0.50000   0.29557   0.00000  Uiso   1.00
Si103  Si    0.66667   0.50000   0.12947   0.00000  Uiso   1.00
Si104  Si    0.66667   0.50000   0.04923   0.00000  Uiso   1.00
Si105  Si    0.16667   0.50000   0.06967   0.00000  Uiso   1.00
Si106  Si    0.16667   0.50000   0.14992   0.00000  Uiso   1.00
B107   B     0.58529   0.50000   0.29557   0.00000  Uiso   1.00
B108   B     0.08529   0.50000   0.29557   0.00000  Uiso   1.00
Si109  Si    0.50000   0.50000   0.06967   0.00000  Uiso   1.00
Si110  Si    0.50000   0.50000   0.14992   0.00000  Uiso   1.00
Si111  Si   -0.00000   0.50000   0.12947   0.00000  Uiso   1.00
Si112  Si   -0.00000   0.50000   0.04923   0.00000  Uiso   1.00
loop_
_geom_bond_atom_site_label_1
_geom_bond_atom_site_label_2
_geom_bond_distance
_geom_bond_site_symmetry_2
_ccdc_geom_bond_type
Si1    Si72    2.383   .     S
Si1    Si6     2.383   .     S
Si1    Si58    2.319   .     S
Si1    Si46    2.319   .     S
Si2    Si71    2.368   .     S
Si2    Si5     2.368   .     S
Si2    Si57    2.319   .     S
Si2    Si45    2.319   .     S
Si3    Si74    2.383   .     S
Si3    Si8     2.383   .     S
Si3    Si44    2.319   .     S
Si3    Si84    2.319   1_655 S
Si4    Si73    2.368   .     S
Si4    Si7     2.368   .     S
Si4    Si43    2.319   .     S
Si4    Si83    2.319   1_655 S
Si5    Si98    2.368   .     S
Si6    Si60    2.326   .     S
Si6    Si97    2.383   .     S
Si6    Si50    2.326   .     S
Si7    Si100   2.368   .     S
Si8    Si48    2.326   .     S
Si8    Si86    2.326   1_655 S
Si8    Si99    2.383   .     S
B9     B61     1.841   .     S
B9     B75     1.720   .     S
B9     B12     1.720   .     S
B9     B52     1.792   .     S
B10    B87     1.841   1_655 S
B10    B51     1.792   .     S
B10    B76     1.720   .     S
B10    B14     1.720   .     S
B11    B62     1.841   .     S
B11    B12     1.720   .     S
B11    B101    1.720   .     S
B11    B55     1.792   .     S
B12    B62     1.734   .     S
B12    B61     1.734   .     S
B12    B54     1.867   .     S
B13    B88     1.841   1_655 S
B13    B53     1.792   .     S
B13    B14     1.720   .     S
B13    B102    1.720   .     S
B14    B88     1.734   1_655 S
B14    B87     1.734   1_655 S
B14    B56     1.867   1_655 S
Si15   Si78    2.383   1_565 S
Si15   Si20    2.383   .     S
Si15   Si64    2.319   .     S
Si15   Si32    2.319   .     S
Si16   Si77    2.368   1_565 S
Si16   Si19    2.368   .     S
Si16   Si63    2.319   .     S
Si16   Si31    2.319   .     S
Si17   Si80    2.383   1_565 S
Si17   Si22    2.383   .     S
Si17   Si30    2.319   .     S
Si17   Si90    2.319   .     S
Si18   Si79    2.368   1_565 S
Si18   Si21    2.368   .     S
Si18   Si29    2.319   .     S
Si18   Si89    2.319   .     S
Si19   Si104   2.368   .     S
Si20   Si66    2.326   .     S
Si20   Si103   2.383   .     S
Si20   Si36    2.326   .     S
Si21   Si106   2.368   .     S
Si22   Si34    2.326   .     S
Si22   Si92    2.326   .     S
Si22   Si105   2.383   .     S
B23    B67     1.841   .     S
B23    B81     1.720   1_565 S
B23    B26     1.720   .     S
B23    B38     1.792   .     S
B24    B93     1.841   .     S
B24    B37     1.792   .     S
B24    B82     1.720   1_565 S
B24    B28     1.720   .     S
B25    B68     1.841   .     S
B25    B26     1.720   .     S
B25    B107    1.720   .     S
B25    B41     1.792   .     S
B26    B68     1.734   .     S
B26    B67     1.734   .     S
B26    B40     1.867   .     S
B27    B94     1.841   .     S
B27    B39     1.792   .     S
B27    B28     1.720   .     S
B27    B108    1.720   .     S
B28    B94     1.734   .     S
B28    B93     1.734   .     S
B28    B42     1.867   1_455 S
Si29   Si72    2.383   1_565 S
Si29   Si34    2.383   .     S
Si29   Si64    2.319   .     S
Si30   Si71    2.368   1_565 S
Si30   Si33    2.368   .     S
Si30   Si63    2.319   .     S
Si31   Si74    2.383   1_565 S
Si31   Si36    2.383   .     S
Si31   Si90    2.319   1_655 S
Si32   Si73    2.368   1_565 S
Si32   Si35    2.368   .     S
Si32   Si89    2.319   1_655 S
Si33   Si98    2.368   .     S
Si34   Si66    2.326   .     S
Si34   Si97    2.383   .     S
Si35   Si100   2.368   .     S
Si36   Si92    2.326   1_655 S
Si36   Si99    2.383   .     S
B37    B67     1.841   .     S
B37    B75     1.720   1_565 S
B37    B40     1.720   .     S
B38    B93     1.841   1_655 S
B38    B76     1.720   1_565 S
B38    B42     1.720   .     S
B39    B68     1.841   .     S
B39    B40     1.720   .     S
B39    B101    1.720   .     S
B40    B68     1.734   .     S
B40    B67     1.734   .     S
B41    B94     1.841   1_655 S
B41    B42     1.720   .     S
B41    B102    1.720   .     S
B42    B94     1.734   1_655 S
B42    B93     1.734   1_655 S
B42    B28     1.867   1_655 S
Si43   Si78    2.383   .     S
Si43   Si48    2.383   .     S
Si43   Si58    2.319   .     S
Si44   Si77    2.368   .     S
Si44   Si47    2.368   .     S
Si44   Si57    2.319   .     S
Si45   Si80    2.383   .     S
Si45   Si50    2.383   .     S
Si45   Si84    2.319   .     S
Si46   Si79    2.368   .     S
Si46   Si49    2.368   .     S
Si46   Si83    2.319   .     S
Si47   Si104   2.368   .     S
Si48   Si60    2.326   .     S
Si48   Si103   2.383   .     S
Si49   Si106   2.368   .     S
Si50   Si86    2.326   .     S
Si50   Si105   2.383   .     S
B51    B61     1.841   .     S
B51    B81     1.720   .     S
B51    B54     1.720   .     S
B52    B87     1.841   .     S
B52    B82     1.720   .     S
B52    B56     1.720   .     S
B53    B62     1.841   .     S
B53    B54     1.720   .     S
B53    B107    1.720   .     S
B54    B62     1.734   .     S
B54    B61     1.734   .     S
B55    B88     1.841   .     S
B55    B56     1.720   .     S
B55    B108    1.720   .     S
B56    B88     1.734   .     S
B56    B87     1.734   .     S
B56    B14     1.867   1_455 S
Si57   Si70    2.383   .     S
Si57   Si60    2.383   .     S
Si58   Si69    2.368   .     S
Si58   Si59    2.368   .     S
Si59   Si110   2.368   .     S
Si60   Si109   2.383   .     S
B61    B75     1.734   .     S
B61    B81     1.734   .     S
B62    B107    1.734   .     S
B62    B101    1.734   .     S
Si63   Si70    2.383   1_565 S
Si63   Si66    2.383   .     S
Si64   Si69    2.368   1_565 S
Si64   Si65    2.368   .     S
Si65   Si110   2.368   .     S
Si66   Si109   2.383   .     S
B67    B81     1.734   1_565 S
B67    B75     1.734   1_565 S
B68    B101    1.734   .     S
B68    B107    1.734   .     S
Si69   Si64    2.368   1_545 S
Si70   Si72    2.326   .     S
Si70   Si78    2.326   .     S
Si70   Si63    2.383   1_545 S
Si71   Si30    2.368   1_545 S
Si72   Si29    2.383   1_545 S
Si72   Si80    2.326   .     S
Si73   Si32    2.368   1_545 S
Si74   Si78    2.326   .     S
Si74   Si96    2.326   1_655 S
Si74   Si31    2.383   1_545 S
B75    B37     1.720   1_545 S
B75    B67     1.734   1_545 S
B75    B81     1.867   .     S
B76    B38     1.720   1_545 S
B76    B87     1.734   1_655 S
B76    B93     1.734   1_645 S
B76    B82     1.867   1_655 S
Si77   Si16    2.368   1_545 S
Si78   Si15    2.383   1_545 S
Si79   Si18    2.368   1_545 S
Si80   Si96    2.326   .     S
Si80   Si17    2.383   1_545 S
B81    B23     1.720   1_545 S
B81    B67     1.734   1_545 S
B82    B24     1.720   1_545 S
B82    B93     1.734   1_545 S
B82    B87     1.734   .     S
B82    B76     1.867   1_455 S
Si83   Si96    2.383   .     S
Si83   Si86    2.383   .     S
Si83   Si4     2.319   1_455 S
Si84   Si95    2.368   .     S
Si84   Si85    2.368   .     S
Si84   Si3     2.319   1_455 S
Si85   Si112   2.368   .     S
Si86   Si8     2.326   1_455 S
Si86   Si111   2.383   .     S
B87    B10     1.841   1_455 S
B87    B76     1.734   1_455 S
B87    B14     1.734   1_455 S
B88    B13     1.841   1_455 S
B88    B14     1.734   1_455 S
B88    B108    1.734   .     S
B88    B102    1.734   1_455 S
Si89   Si96    2.383   1_565 S
Si89   Si92    2.383   .     S
Si89   Si32    2.319   1_455 S
Si90   Si95    2.368   1_565 S
Si90   Si91    2.368   .     S
Si90   Si31    2.319   1_455 S
Si91   Si112   2.368   .     S
Si92   Si36    2.326   1_455 S
Si92   Si111   2.383   .     S
B93    B38     1.841   1_455 S
B93    B82     1.734   1_565 S
B93    B76     1.734   1_465 S
B93    B42     1.734   1_455 S
B94    B41     1.841   1_455 S
B94    B42     1.734   1_455 S
B94    B102    1.734   1_455 S
B94    B108    1.734   .     S
Si95   Si90    2.368   1_545 S
Si96   Si74    2.326   1_455 S
Si96   Si89    2.383   1_545 S
Si97   Si110   2.319   .     S
Si97   Si106   2.319   .     S
Si98   Si109   2.319   .     S
Si98   Si105   2.319   .     S
Si99   Si104   2.319   .     S
Si99   Si112   2.319   1_655 S
Si100  Si103   2.319   .     S
Si100  Si111   2.319   1_655 S
B101   B107    1.867   .     S
B102   B94     1.734   1_655 S
B102   B88     1.734   1_655 S
B102   B108    1.867   1_655 S
Si103  Si110   2.319   .     S
Si104  Si109   2.319   .     S
Si105  Si112   2.319   .     S
Si106  Si111   2.319   .     S
B108   B102    1.867   1_455 S
Si111  Si100   2.319   1_455 S
Si112  Si99    2.319   1_455 S
