data_Layer_1
_audit_creation_date              2023-10-20
_audit_creation_method            'Materials Studio'
_symmetry_space_group_name_H-M    'P1'
_symmetry_Int_Tables_number       1
_symmetry_cell_setting            triclinic
loop_
_symmetry_equiv_pos_as_xyz
  x,y,z
_cell_length_a                    15.9500
_cell_length_b                    15.9500
_cell_length_c                    60.0000
_cell_angle_alpha                 90.0000
_cell_angle_beta                  90.0000
_cell_angle_gamma                 120.0000
loop_
_atom_site_label
_atom_site_type_symbol
_atom_site_fract_x
_atom_site_fract_y
_atom_site_fract_z
_atom_site_U_iso_or_equiv
_atom_site_adp_type
_atom_site_occupancy
Mo1    Mo    0.59321   0.52633   0.05022   0.00000  Uiso   1.00
S2     S     0.52672   0.59325   0.02302   0.00000  Uiso   1.00
S3     S     0.52687   0.59372   0.07740   0.00000  Uiso   1.00
Mo4    Mo    0.79320   0.52632   0.05009   0.00000  Uiso   1.00
S5     S     0.72669   0.59364   0.02303   0.00000  Uiso   1.00
S6     S     0.72696   0.59339   0.07743   0.00000  Uiso   1.00
Mo7    Mo    0.99318   0.52630   0.04998   0.00000  Uiso   1.00
S8     S     0.92651   0.59333   0.02284   0.00000  Uiso   1.00
S9     S     0.92705   0.59362   0.07722   0.00000  Uiso   1.00
Mo10   Mo    0.19313   0.52628   0.05004   0.00000  Uiso   1.00
S11    S     0.12645   0.59270   0.02267   0.00000  Uiso   1.00
S12    S     0.12713   0.59435   0.07702   0.00000  Uiso   1.00
Mo13   Mo    0.39313   0.52627   0.05020   0.00000  Uiso   1.00
S14    S     0.32661   0.59269   0.02280   0.00000  Uiso   1.00
S15    S     0.32696   0.59431   0.07715   0.00000  Uiso   1.00
Mo16   Mo    0.59308   0.72631   0.05008   0.00000  Uiso   1.00
S17    S     0.52701   0.79291   0.02259   0.00000  Uiso   1.00
S18    S     0.52645   0.79416   0.07694   0.00000  Uiso   1.00
Mo19   Mo    0.79313   0.72629   0.05021   0.00000  Uiso   1.00
S20    S     0.72686   0.79333   0.02297   0.00000  Uiso   1.00
S21    S     0.72653   0.79365   0.07734   0.00000  Uiso   1.00
Mo22   Mo    0.99322   0.72631   0.04993   0.00000  Uiso   1.00
S23    S     0.92631   0.79341   0.02291   0.00000  Uiso   1.00
S24    S     0.92712   0.79353   0.07727   0.00000  Uiso   1.00
Mo25   Mo    0.19322   0.72635   0.04957   0.00000  Uiso   1.00
S26    S     0.12602   0.79304   0.02246   0.00000  Uiso   1.00
S27    S     0.12762   0.79403   0.07680   0.00000  Uiso   1.00
Mo28   Mo    0.39313   0.72635   0.04969   0.00000  Uiso   1.00
S29    S     0.32653   0.79268   0.02226   0.00000  Uiso   1.00
S30    S     0.32706   0.79434   0.07659   0.00000  Uiso   1.00
Mo31   Mo    0.59307   0.92633   0.04957   0.00000  Uiso   1.00
S32    S     0.52726   0.99350   0.02216   0.00000  Uiso   1.00
S33    S     0.52617   0.99351   0.07647   0.00000  Uiso   1.00
Mo34   Mo    0.79310   0.92633   0.05007   0.00000  Uiso   1.00
S35    S     0.72746   0.99353   0.02264   0.00000  Uiso   1.00
S36    S     0.72586   0.99348   0.07698   0.00000  Uiso   1.00
Mo37   Mo    0.99316   0.92632   0.05003   0.00000  Uiso   1.00
S38    S     0.92677   0.99367   0.02294   0.00000  Uiso   1.00
S39    S     0.92669   0.99334   0.07731   0.00000  Uiso   1.00
Mo40   Mo    0.19318   0.92633   0.04949   0.00000  Uiso   1.00
S41    S     0.12611   0.99380   0.02263   0.00000  Uiso   1.00
S42    S     0.12742   0.99325   0.07697   0.00000  Uiso   1.00
Mo43   Mo    0.39312   0.92629   0.04919   0.00000  Uiso   1.00
S44    S     0.32638   0.99364   0.02215   0.00000  Uiso   1.00
S45    S     0.32717   0.99337   0.07646   0.00000  Uiso   1.00
Mo46   Mo    0.59305   0.12630   0.04939   0.00000  Uiso   1.00
S47    S     0.52702   0.19429   0.02235   0.00000  Uiso   1.00
S48    S     0.52638   0.19278   0.07668   0.00000  Uiso   1.00
Mo49   Mo    0.79299   0.12631   0.04985   0.00000  Uiso   1.00
S50    S     0.72756   0.19402   0.02252   0.00000  Uiso   1.00
S51    S     0.72574   0.19306   0.07687   0.00000  Uiso   1.00
Mo52   Mo    0.99304   0.12629   0.05016   0.00000  Uiso   1.00
S53    S     0.92719   0.19369   0.02288   0.00000  Uiso   1.00
S54    S     0.92590   0.19315   0.07725   0.00000  Uiso   1.00
Mo55   Mo    0.19310   0.12633   0.04991   0.00000  Uiso   1.00
S56    S     0.12649   0.19383   0.02295   0.00000  Uiso   1.00
S57    S     0.12678   0.19312   0.07733   0.00000  Uiso   1.00
Mo58   Mo    0.39308   0.12630   0.04942   0.00000  Uiso   1.00
S59    S     0.32634   0.19419   0.02261   0.00000  Uiso   1.00
S60    S     0.32709   0.19285   0.07696   0.00000  Uiso   1.00
Mo61   Mo    0.59310   0.32630   0.04981   0.00000  Uiso   1.00
S62    S     0.52674   0.39413   0.02287   0.00000  Uiso   1.00
S63    S     0.52667   0.39290   0.07723   0.00000  Uiso   1.00
Mo64   Mo    0.79312   0.32631   0.04989   0.00000  Uiso   1.00
S65    S     0.72707   0.39404   0.02277   0.00000  Uiso   1.00
S66    S     0.72637   0.39302   0.07713   0.00000  Uiso   1.00
Mo67   Mo    0.99305   0.32625   0.05013   0.00000  Uiso   1.00
S68    S     0.92705   0.39346   0.02283   0.00000  Uiso   1.00
S69    S     0.92645   0.39353   0.07721   0.00000  Uiso   1.00
Mo70   Mo    0.19307   0.32627   0.05023   0.00000  Uiso   1.00
S71    S     0.12668   0.39318   0.02298   0.00000  Uiso   1.00
S72    S     0.12664   0.39368   0.07736   0.00000  Uiso   1.00
Mo73   Mo    0.39309   0.32630   0.05002   0.00000  Uiso   1.00
S74    S     0.32649   0.39361   0.02300   0.00000  Uiso   1.00
S75    S     0.32687   0.39327   0.07739   0.00000  Uiso   1.00
Si76   Si    0.06250   0.12500   0.15833   0.00000  Uiso   1.00
Si77   Si    0.18750   0.12500   0.18269   0.00000  Uiso   1.00
Si78   Si    0.18750   0.00000   0.20704   0.00000  Uiso   1.00
Si79   Si    0.06250   0.00000   0.13397   0.00000  Uiso   1.00
Si80   Si    0.31250   0.12500   0.15833   0.00000  Uiso   1.00
Si81   Si    0.43750   0.12500   0.18269   0.00000  Uiso   1.00
Si82   Si    0.43750   0.00000   0.20704   0.00000  Uiso   1.00
Si83   Si    0.31250   0.00000   0.13397   0.00000  Uiso   1.00
Si84   Si    0.56250   0.12500   0.15833   0.00000  Uiso   1.00
Si85   Si    0.68750   0.12500   0.18269   0.00000  Uiso   1.00
Si86   Si    0.68750   0.00000   0.20704   0.00000  Uiso   1.00
Si87   Si    0.56250  -0.00000   0.13397   0.00000  Uiso   1.00
Si88   Si    0.81250   0.12500   0.15833   0.00000  Uiso   1.00
Si89   Si    0.93750   0.12500   0.18269   0.00000  Uiso   1.00
Si90   Si    0.93750   0.00000   0.20704   0.00000  Uiso   1.00
Si91   Si    0.81250  -0.00000   0.13397   0.00000  Uiso   1.00
Si92   Si    0.06250   0.37500   0.15833   0.00000  Uiso   1.00
Si93   Si    0.18750   0.37500   0.18269   0.00000  Uiso   1.00
Si94   Si    0.18750   0.25000   0.20704   0.00000  Uiso   1.00
Si95   Si    0.06250   0.25000   0.13397   0.00000  Uiso   1.00
Si96   Si    0.31250   0.37500   0.15833   0.00000  Uiso   1.00
Si97   Si    0.43750   0.37500   0.18269   0.00000  Uiso   1.00
Si98   Si    0.43750   0.25000   0.20704   0.00000  Uiso   1.00
Si99   Si    0.31250   0.25000   0.13397   0.00000  Uiso   1.00
Si100  Si    0.56250   0.37500   0.15833   0.00000  Uiso   1.00
Si101  Si    0.68750   0.37500   0.18269   0.00000  Uiso   1.00
Si102  Si    0.68750   0.25000   0.20704   0.00000  Uiso   1.00
Si103  Si    0.56250   0.25000   0.13397   0.00000  Uiso   1.00
Si104  Si    0.81250   0.37500   0.15833   0.00000  Uiso   1.00
Si105  Si    0.93750   0.37500   0.18269   0.00000  Uiso   1.00
Si106  Si    0.93750   0.25000   0.20704   0.00000  Uiso   1.00
Si107  Si    0.81250   0.25000   0.13397   0.00000  Uiso   1.00
Si108  Si    0.06250   0.62500   0.15833   0.00000  Uiso   1.00
Si109  Si    0.18750   0.62500   0.18269   0.00000  Uiso   1.00
Si110  Si    0.18750   0.50000   0.20704   0.00000  Uiso   1.00
Si111  Si    0.06250   0.50000   0.13397   0.00000  Uiso   1.00
Si112  Si    0.31250   0.62500   0.15833   0.00000  Uiso   1.00
Si113  Si    0.43750   0.62500   0.18269   0.00000  Uiso   1.00
Si114  Si    0.43750   0.50000   0.20704   0.00000  Uiso   1.00
Si115  Si    0.31250   0.50000   0.13397   0.00000  Uiso   1.00
Si116  Si    0.56250   0.62500   0.15833   0.00000  Uiso   1.00
Si117  Si    0.68750   0.62500   0.18269   0.00000  Uiso   1.00
Si118  Si    0.68750   0.50000   0.20704   0.00000  Uiso   1.00
Si119  Si    0.56250   0.50000   0.13397   0.00000  Uiso   1.00
Si120  Si    0.81250   0.62500   0.15833   0.00000  Uiso   1.00
Si121  Si    0.93750   0.62500   0.18269   0.00000  Uiso   1.00
Si122  Si    0.93750   0.50000   0.20704   0.00000  Uiso   1.00
Si123  Si    0.81250   0.50000   0.13397   0.00000  Uiso   1.00
Si124  Si    0.06250   0.87500   0.15833   0.00000  Uiso   1.00
Si125  Si    0.18750   0.87500   0.18269   0.00000  Uiso   1.00
Si126  Si    0.18750   0.75000   0.20704   0.00000  Uiso   1.00
Si127  Si    0.06250   0.75000   0.13397   0.00000  Uiso   1.00
Si128  Si    0.31250   0.87500   0.15833   0.00000  Uiso   1.00
Si129  Si    0.43750   0.87500   0.18269   0.00000  Uiso   1.00
Si130  Si    0.43750   0.75000   0.20704   0.00000  Uiso   1.00
Si131  Si    0.31250   0.75000   0.13397   0.00000  Uiso   1.00
Si132  Si    0.56250   0.87500   0.15833   0.00000  Uiso   1.00
Si133  Si    0.68750   0.87500   0.18269   0.00000  Uiso   1.00
Si134  Si    0.68750   0.75000   0.20704   0.00000  Uiso   1.00
Si135  Si    0.56250   0.75000   0.13397   0.00000  Uiso   1.00
Si136  Si    0.81250   0.87500   0.15833   0.00000  Uiso   1.00
Si137  Si    0.93750   0.87500   0.18269   0.00000  Uiso   1.00
Si138  Si    0.93750   0.75000   0.20704   0.00000  Uiso   1.00
Si139  Si    0.81250   0.75000   0.13397   0.00000  Uiso   1.00
loop_
_geom_bond_atom_site_label_1
_geom_bond_atom_site_label_2
_geom_bond_distance
_geom_bond_site_symmetry_2
_ccdc_geom_bond_type
Mo1    S2      2.462   .     S
Mo1    S62     2.455   .     S
Mo1    S5      2.462   .     S
Mo1    S3      2.464   .     S
Mo1    S63     2.454   .     S
Mo1    S6      2.466   .     S
Mo1    Mo16    3.191   .     S
Mo1    Mo73    3.191   .     S
Mo1    Mo4     3.190   .     S
Mo1    Mo13    3.191   .     S
Mo1    Mo19    3.189   .     S
Mo1    Mo61    3.190   .     S
S2     Mo16    2.452   .     S
S2     Mo13    2.463   .     S
S2     S3      3.263   .     S
S3     Mo16    2.458   .     S
S3     Mo13    2.465   .     S
Mo4    S5      2.460   .     S
Mo4    S65     2.455   .     S
Mo4    S8      2.463   .     S
Mo4    S6      2.466   .     S
Mo4    S66     2.454   .     S
Mo4    S9      2.463   .     S
Mo4    Mo19    3.190   .     S
Mo4    Mo61    3.191   .     S
Mo4    Mo7     3.190   .     S
Mo4    Mo22    3.190   .     S
Mo4    Mo64    3.189   .     S
S5     Mo19    2.453   .     S
S5     S6      3.264   .     S
S6     Mo19    2.457   .     S
Mo7    S8      2.462   .     S
Mo7    S68     2.454   .     S
Mo7    S9      2.464   .     S
Mo7    S69     2.456   .     S
Mo7    Mo22    3.190   .     S
Mo7    Mo64    3.190   .     S
Mo7    Mo67    3.190   .     S
Mo7    Mo10    3.189   1_655 S
Mo7    S11     2.464   1_655 S
Mo7    S12     2.461   1_655 S
Mo7    Mo25    3.191   1_655 S
S8     Mo22    2.453   .     S
S8     S9      3.263   .     S
S9     Mo22    2.458   .     S
Mo10   S11     2.465   .     S
Mo10   S71     2.453   .     S
Mo10   S14     2.464   .     S
Mo10   S12     2.460   .     S
Mo10   S72     2.458   .     S
Mo10   S15     2.463   .     S
Mo10   Mo25    3.191   .     S
Mo10   Mo13    3.190   .     S
Mo10   Mo28    3.191   .     S
Mo10   Mo70    3.190   .     S
Mo10   Mo7     3.189   1_455 S
Mo10   Mo67    3.191   1_455 S
S11    Mo25    2.452   .     S
S11    S12     3.261   .     S
S11    Mo7     2.464   1_455 S
S12    Mo25    2.457   .     S
S12    Mo7     2.461   1_455 S
Mo13   S14     2.465   .     S
Mo13   S74     2.454   .     S
Mo13   S15     2.460   .     S
Mo13   S75     2.457   .     S
Mo13   Mo28    3.191   .     S
Mo13   Mo70    3.191   .     S
Mo13   Mo16    3.190   .     S
Mo13   Mo73    3.189   .     S
S14    Mo28    2.452   .     S
S14    S15     3.261   .     S
S15    Mo28    2.458   .     S
Mo16   S17     2.466   .     S
Mo16   S20     2.462   .     S
Mo16   S18     2.459   .     S
Mo16   S21     2.464   .     S
Mo16   Mo31    3.190   .     S
Mo16   Mo19    3.191   .     S
Mo16   Mo28    3.189   .     S
Mo16   Mo34    3.190   .     S
S17    Mo31    2.453   .     S
S17    Mo28    2.463   .     S
S17    S18     3.261   .     S
S18    Mo31    2.456   .     S
S18    Mo28    2.463   .     S
Mo19   S20     2.462   .     S
Mo19   S23     2.463   .     S
Mo19   S21     2.465   .     S
Mo19   S24     2.462   .     S
Mo19   Mo34    3.191   .     S
Mo19   Mo22    3.191   .     S
Mo19   Mo37    3.191   .     S
S20    Mo34    2.453   .     S
S20    S21     3.262   .     S
S21    Mo34    2.457   .     S
Mo22   S23     2.461   .     S
Mo22   S24     2.466   .     S
Mo22   Mo37    3.191   .     S
Mo22   Mo25    3.190   1_655 S
Mo22   S26     2.466   1_655 S
Mo22   S27     2.459   1_655 S
Mo22   Mo40    3.190   1_655 S
S23    Mo37    2.453   .     S
S23    S24     3.262   .     S
S24    Mo37    2.457   .     S
Mo25   S26     2.463   .     S
Mo25   S29     2.465   .     S
Mo25   S27     2.461   .     S
Mo25   S30     2.459   .     S
Mo25   Mo40    3.190   .     S
Mo25   Mo28    3.189   .     S
Mo25   Mo43    3.189   .     S
Mo25   Mo7     3.191   1_455 S
Mo25   Mo22    3.190   1_455 S
S26    Mo40    2.453   .     S
S26    S27     3.260   .     S
S26    Mo22    2.466   1_455 S
S27    Mo40    2.455   .     S
S27    Mo22    2.459   1_455 S
Mo28   S29     2.466   .     S
Mo28   S30     2.457   .     S
Mo28   Mo43    3.189   .     S
Mo28   Mo31    3.189   .     S
S29    Mo43    2.453   .     S
S29    S30     3.260   .     S
S30    Mo43    2.454   .     S
Mo31   S32     2.466   .     S
Mo31   S35     2.461   .     S
Mo31   S33     2.457   .     S
Mo31   S36     2.464   .     S
Mo31   Mo34    3.191   .     S
Mo31   Mo43    3.189   .     S
Mo31   Mo46    3.190   1_565 S
Mo31   Mo49    3.189   1_565 S
S32    Mo43    2.462   .     S
S32    S33     3.259   .     S
S32    Mo46    2.457   1_565 S
S33    Mo43    2.461   .     S
S33    Mo46    2.450   1_565 S
Mo34   S35     2.465   .     S
Mo34   S38     2.462   .     S
Mo34   S36     2.460   .     S
Mo34   S39     2.465   .     S
Mo34   Mo37    3.191   .     S
Mo34   Mo49    3.191   1_565 S
Mo34   Mo52    3.189   1_565 S
S35    S36     3.260   .     S
S35    Mo49    2.455   1_565 S
S36    Mo49    2.453   1_565 S
Mo37   S38     2.461   .     S
Mo37   S39     2.466   .     S
Mo37   Mo40    3.190   1_655 S
Mo37   S41     2.465   1_655 S
Mo37   S42     2.460   1_655 S
Mo37   Mo52    3.190   1_565 S
Mo37   Mo55    3.190   1_665 S
S38    S39     3.262   .     S
S38    Mo52    2.454   1_565 S
S39    Mo52    2.455   1_565 S
Mo40   S41     2.460   .     S
Mo40   S44     2.465   .     S
Mo40   S42     2.465   .     S
Mo40   S45     2.459   .     S
Mo40   Mo43    3.189   .     S
Mo40   Mo22    3.190   1_455 S
Mo40   Mo37    3.190   1_455 S
Mo40   Mo55    3.191   1_565 S
Mo40   Mo58    3.189   1_565 S
S41    S42     3.260   .     S
S41    Mo37    2.465   1_455 S
S41    Mo55    2.456   1_565 S
S42    Mo37    2.460   1_455 S
S42    Mo55    2.453   1_565 S
Mo43   S44     2.462   .     S
Mo43   S45     2.460   .     S
Mo43   Mo46    3.190   1_565 S
Mo43   Mo58    3.190   1_565 S
S44    S45     3.259   .     S
S44    Mo58    2.457   1_565 S
S45    Mo58    2.450   1_565 S
Mo46   S47     2.462   .     S
Mo46   S50     2.460   .     S
Mo46   S48     2.462   .     S
Mo46   S51     2.465   .     S
Mo46   Mo61    3.190   .     S
Mo46   Mo49    3.189   .     S
Mo46   Mo58    3.190   .     S
Mo46   Mo64    3.191   .     S
Mo46   Mo31    3.190   1_545 S
Mo46   S32     2.457   1_545 S
Mo46   Mo43    3.190   1_545 S
Mo46   S33     2.450   1_545 S
S47    Mo61    2.458   .     S
S47    Mo58    2.462   .     S
S47    S48     3.260   .     S
S48    Mo61    2.450   .     S
S48    Mo58    2.463   .     S
Mo49   S50     2.464   .     S
Mo49   S53     2.460   .     S
Mo49   S51     2.461   .     S
Mo49   S54     2.465   .     S
Mo49   Mo64    3.189   .     S
Mo49   Mo52    3.191   .     S
Mo49   Mo67    3.190   .     S
Mo49   Mo31    3.189   1_545 S
Mo49   S35     2.455   1_545 S
Mo49   Mo34    3.191   1_545 S
Mo49   S36     2.453   1_545 S
S50    Mo64    2.457   .     S
S50    S51     3.261   .     S
S51    Mo64    2.451   .     S
Mo52   S53     2.463   .     S
Mo52   S54     2.463   .     S
Mo52   Mo67    3.189   .     S
Mo52   Mo37    3.190   1_545 S
Mo52   Mo34    3.189   1_545 S
Mo52   S38     2.454   1_545 S
Mo52   S39     2.455   1_545 S
Mo52   Mo55    3.191   1_655 S
Mo52   S56     2.462   1_655 S
Mo52   S57     2.464   1_655 S
Mo52   Mo70    3.190   1_655 S
S53    Mo67    2.455   .     S
S53    S54     3.262   .     S
S54    Mo67    2.455   .     S
Mo55   S56     2.459   .     S
Mo55   S59     2.464   .     S
Mo55   S57     2.467   .     S
Mo55   S60     2.461   .     S
Mo55   Mo70    3.189   .     S
Mo55   Mo58    3.190   .     S
Mo55   Mo73    3.190   .     S
Mo55   Mo52    3.191   1_455 S
Mo55   Mo40    3.191   1_545 S
Mo55   S41     2.456   1_545 S
Mo55   Mo37    3.190   1_445 S
Mo55   S42     2.453   1_545 S
S56    Mo70    2.455   .     S
S56    S57     3.263   .     S
S56    Mo52    2.462   1_455 S
S57    Mo70    2.455   .     S
S57    Mo52    2.464   1_455 S
Mo58   S59     2.459   .     S
Mo58   S60     2.466   .     S
Mo58   Mo73    3.190   .     S
Mo58   Mo61    3.190   .     S
Mo58   S44     2.457   1_545 S
Mo58   Mo40    3.189   1_545 S
Mo58   Mo43    3.190   1_545 S
Mo58   S45     2.450   1_545 S
S59    Mo73    2.456   .     S
S59    S60     3.261   .     S
S60    Mo73    2.452   .     S
Mo61   S62     2.460   .     S
Mo61   S65     2.461   .     S
Mo61   S63     2.466   .     S
Mo61   S66     2.465   .     S
Mo61   Mo64    3.190   .     S
Mo61   Mo73    3.190   .     S
S62    Mo73    2.462   .     S
S62    S63     3.262   .     S
S63    Mo73    2.464   .     S
Mo64   S65     2.462   .     S
Mo64   S68     2.461   .     S
Mo64   S66     2.464   .     S
Mo64   S69     2.466   .     S
Mo64   Mo67    3.190   .     S
S65    S66     3.261   .     S
Mo67   S68     2.464   .     S
Mo67   S69     2.461   .     S
Mo67   Mo10    3.191   1_655 S
Mo67   Mo70    3.190   1_655 S
Mo67   S71     2.462   1_655 S
Mo67   S72     2.464   1_655 S
S68    S69     3.262   .     S
Mo70   S71     2.463   .     S
Mo70   S74     2.463   .     S
Mo70   S72     2.463   .     S
Mo70   S75     2.464   .     S
Mo70   Mo73    3.190   .     S
Mo70   Mo67    3.190   1_455 S
Mo70   Mo52    3.190   1_455 S
S71    S72     3.263   .     S
S71    Mo67    2.462   1_455 S
S72    Mo67    2.464   1_455 S
Mo73   S74     2.460   .     S
Mo73   S75     2.466   .     S
S74    S75     3.263   .     S
Si76   Si95    2.472   .     S
Si76   Si79    2.472   .     S
Si76   Si77    2.472   .     S
Si76   Si89    2.472   1_455 S
Si77   Si94    2.472   .     S
Si77   Si78    2.472   .     S
Si77   Si80    2.472   .     S
Si78   Si125   2.472   1_545 S
Si79   Si124   2.472   1_545 S
Si80   Si99    2.472   .     S
Si80   Si83    2.472   .     S
Si80   Si81    2.472   .     S
Si81   Si98    2.472   .     S
Si81   Si82    2.472   .     S
Si81   Si84    2.472   .     S
Si82   Si129   2.472   1_545 S
Si83   Si128   2.472   1_545 S
Si84   Si103   2.472   .     S
Si84   Si87    2.472   .     S
Si84   Si85    2.472   .     S
Si85   Si102   2.472   .     S
Si85   Si86    2.472   .     S
Si85   Si88    2.472   .     S
Si86   Si133   2.472   1_545 S
Si87   Si132   2.472   1_545 S
Si88   Si107   2.472   .     S
Si88   Si91    2.472   .     S
Si88   Si89    2.472   .     S
Si89   Si106   2.472   .     S
Si89   Si90    2.472   .     S
Si89   Si76    2.472   1_655 S
Si90   Si137   2.472   1_545 S
Si91   Si136   2.472   1_545 S
Si92   Si111   2.472   .     S
Si92   Si95    2.472   .     S
Si92   Si93    2.472   .     S
Si92   Si105   2.472   1_455 S
Si93   Si110   2.472   .     S
Si93   Si94    2.472   .     S
Si93   Si96    2.472   .     S
Si96   Si115   2.472   .     S
Si96   Si99    2.472   .     S
Si96   Si97    2.472   .     S
Si97   Si114   2.472   .     S
Si97   Si98    2.472   .     S
Si97   Si100   2.472   .     S
Si100  Si119   2.472   .     S
Si100  Si103   2.472   .     S
Si100  Si101   2.472   .     S
Si101  Si118   2.472   .     S
Si101  Si102   2.472   .     S
Si101  Si104   2.472   .     S
Si104  Si123   2.472   .     S
Si104  Si107   2.472   .     S
Si104  Si105   2.472   .     S
Si105  Si122   2.472   .     S
Si105  Si106   2.472   .     S
Si105  Si92    2.472   1_655 S
Si108  Si127   2.472   .     S
Si108  Si111   2.472   .     S
Si108  Si109   2.472   .     S
Si108  Si121   2.472   1_455 S
Si109  Si126   2.472   .     S
Si109  Si110   2.472   .     S
Si109  Si112   2.472   .     S
Si112  Si131   2.472   .     S
Si112  Si115   2.472   .     S
Si112  Si113   2.472   .     S
Si113  Si130   2.472   .     S
Si113  Si114   2.472   .     S
Si113  Si116   2.472   .     S
Si116  Si135   2.472   .     S
Si116  Si119   2.472   .     S
Si116  Si117   2.472   .     S
Si117  Si134   2.472   .     S
Si117  Si118   2.472   .     S
Si117  Si120   2.472   .     S
Si120  Si139   2.472   .     S
Si120  Si123   2.472   .     S
Si120  Si121   2.472   .     S
Si121  Si138   2.472   .     S
Si121  Si122   2.472   .     S
Si121  Si108   2.472   1_655 S
Si124  Si127   2.472   .     S
Si124  Si125   2.472   .     S
Si124  Si79    2.472   1_565 S
Si124  Si137   2.472   1_455 S
Si125  Si126   2.472   .     S
Si125  Si128   2.472   .     S
Si125  Si78    2.472   1_565 S
Si128  Si131   2.472   .     S
Si128  Si129   2.472   .     S
Si128  Si83    2.472   1_565 S
Si129  Si130   2.472   .     S
Si129  Si132   2.472   .     S
Si129  Si82    2.472   1_565 S
Si132  Si135   2.472   .     S
Si132  Si133   2.472   .     S
Si132  Si87    2.472   1_565 S
Si133  Si134   2.472   .     S
Si133  Si136   2.472   .     S
Si133  Si86    2.472   1_565 S
Si136  Si139   2.472   .     S
Si136  Si137   2.472   .     S
Si136  Si91    2.472   1_565 S
Si137  Si138   2.472   .     S
Si137  Si90    2.472   1_565 S
Si137  Si124   2.472   1_655 S
