data_S4-opted
_audit_creation_date              2023-10-20
_audit_creation_method            'Materials Studio'
_symmetry_space_group_name_H-M    'PMMM'
_symmetry_Int_Tables_number       47
_symmetry_cell_setting            orthorhombic
loop_
_symmetry_equiv_pos_as_xyz
  x,y,z
  -x,-y,z
  -x,y,-z
  x,-y,-z
  -x,-y,-z
  x,y,-z
  x,-y,z
  -x,y,z
_cell_length_a                    3.6000
_cell_length_b                    2.9602
_cell_length_c                    9.9999
_cell_angle_alpha                 90.0000
_cell_angle_beta                  90.0000
_cell_angle_gamma                 90.0000
loop_
_atom_site_label
_atom_site_type_symbol
_atom_site_fract_x
_atom_site_fract_y
_atom_site_fract_z
_atom_site_U_iso_or_equiv
_atom_site_adp_type
_atom_site_occupancy
B1     B     0.00000   0.50000   0.00000   0.00000  Uiso   1.00
B2     B     0.25064   0.00000   0.00000   0.00000  Uiso   1.00
loop_
_geom_bond_atom_site_label_1
_geom_bond_atom_site_label_2
_geom_bond_distance
_geom_bond_site_symmetry_2
_ccdc_geom_bond_type
B1     B2      1.733   .     S
B1     B2      1.733   2_565 S
B1     B2      1.733   2     S
B1     B2      1.733   1_565 S
B2     B1      1.733   1_545 S
B2     B2      1.795   2_655 S
B2     B2      1.805   2     S
