data_Si-MoSe2
_audit_creation_date              2023-10-20
_audit_creation_method            'Materials Studio'
_symmetry_space_group_name_H-M    'P1'
_symmetry_Int_Tables_number       1
_symmetry_cell_setting            triclinic
loop_
_symmetry_equiv_pos_as_xyz
  x,y,z
_cell_length_a                    15.8894
_cell_length_b                    15.8865
_cell_length_c                    59.1195
_cell_angle_alpha                 89.2787
_cell_angle_beta                  89.0250
_cell_angle_gamma                 120.3301
loop_
_atom_site_label
_atom_site_type_symbol
_atom_site_fract_x
_atom_site_fract_y
_atom_site_fract_z
_atom_site_U_iso_or_equiv
_atom_site_adp_type
_atom_site_occupancy
Mo1    Mo    0.59421   0.52548   0.05228   0.00000  Uiso   1.00
Se2    Se    0.53023   0.59273   0.02376   0.00000  Uiso   1.00
Se3    Se    0.52246   0.59235   0.07871   0.00000  Uiso   1.00
Mo4    Mo    0.79861   0.52842   0.05016   0.00000  Uiso   1.00
Se5    Se    0.73007   0.59905   0.02420   0.00000  Uiso   1.00
Se6    Se    0.72943   0.59162   0.07889   0.00000  Uiso   1.00
Mo7    Mo    0.99930   0.52679   0.05055   0.00000  Uiso   1.00
Se8    Se    0.93828   0.59722   0.02251   0.00000  Uiso   1.00
Se9    Se    0.93106   0.59272   0.07754   0.00000  Uiso   1.00
Mo10   Mo    0.19377   0.52632   0.05137   0.00000  Uiso   1.00
Se11   Se    0.13586   0.59811   0.02281   0.00000  Uiso   1.00
Se12   Se    0.12661   0.59197   0.07886   0.00000  Uiso   1.00
Mo13   Mo    0.39230   0.52544   0.05088   0.00000  Uiso   1.00
Se14   Se    0.32953   0.59622   0.02349   0.00000  Uiso   1.00
Se15   Se    0.32600   0.59339   0.07830   0.00000  Uiso   1.00
Mo16   Mo    0.59384   0.72763   0.05040   0.00000  Uiso   1.00
Se17   Se    0.53040   0.79616   0.02213   0.00000  Uiso   1.00
Se18   Se    0.52583   0.79320   0.07779   0.00000  Uiso   1.00
Mo19   Mo    0.79591   0.72940   0.05155   0.00000  Uiso   1.00
Se20   Se    0.73397   0.80006   0.02348   0.00000  Uiso   1.00
Se21   Se    0.72289   0.79272   0.07872   0.00000  Uiso   1.00
Mo22   Mo    0.99967   0.72773   0.04998   0.00000  Uiso   1.00
Se23   Se    0.93328   0.79841   0.02360   0.00000  Uiso   1.00
Se24   Se    0.93052   0.79063   0.07841   0.00000  Uiso   1.00
Mo25   Mo    0.19626   0.72792   0.05065   0.00000  Uiso   1.00
Se26   Se    0.13587   0.79821   0.02233   0.00000  Uiso   1.00
Se27   Se    0.12571   0.78986   0.07858   0.00000  Uiso   1.00
Mo28   Mo    0.39522   0.72882   0.05044   0.00000  Uiso   1.00
Se29   Se    0.33290   0.79987   0.02301   0.00000  Uiso   1.00
Se30   Se    0.32689   0.79365   0.07819   0.00000  Uiso   1.00
Mo31   Mo    0.59885   0.92710   0.04968   0.00000  Uiso   1.00
Se32   Se    0.53375   0.99502   0.02185   0.00000  Uiso   1.00
Se33   Se    0.53046   0.98975   0.07790   0.00000  Uiso   1.00
Mo34   Mo    0.80033   0.92921   0.05124   0.00000  Uiso   1.00
Se35   Se    0.73921   0.99749   0.02267   0.00000  Uiso   1.00
Se36   Se    0.72681   0.99042   0.07839   0.00000  Uiso   1.00
Mo37   Mo    1.00054   0.92816   0.05116   0.00000  Uiso   1.00
Se38   Se    0.93814   0.99751   0.02363   0.00000  Uiso   1.00
Se39   Se    0.93234   0.99252   0.07903   0.00000  Uiso   1.00
Mo40   Mo    0.19431   0.92623   0.05078   0.00000  Uiso   1.00
Se41   Se    0.13394   0.99725   0.02223   0.00000  Uiso   1.00
Se42   Se    0.13053   0.99680   0.07843   0.00000  Uiso   1.00
Mo43   Mo    0.39899   0.92905   0.05060   0.00000  Uiso   1.00
Se44   Se    0.33168   0.99667   0.02346   0.00000  Uiso   1.00
Se45   Se    0.32512   0.98969   0.07846   0.00000  Uiso   1.00
Mo46   Mo    0.59461   0.12353   0.04974   0.00000  Uiso   1.00
Se47   Se    0.52939   0.19385   0.02307   0.00000  Uiso   1.00
Se48   Se    0.52413   0.18238   0.07866   0.00000  Uiso   1.00
Mo49   Mo    0.79442   0.12576   0.05094   0.00000  Uiso   1.00
Se50   Se    0.73240   0.19368   0.02215   0.00000  Uiso   1.00
Se51   Se    0.72369   0.19073   0.07744   0.00000  Uiso   1.00
Mo52   Mo    0.99487   0.12671   0.05115   0.00000  Uiso   1.00
Se53   Se    0.93189   0.19746   0.02422   0.00000  Uiso   1.00
Se54   Se    0.92255   0.18630   0.07973   0.00000  Uiso   1.00
Mo55   Mo    0.19369   0.12945   0.04956   0.00000  Uiso   1.00
Se56   Se    0.12640   0.19734   0.02181   0.00000  Uiso   1.00
Se57   Se    0.12436   0.19199   0.07833   0.00000  Uiso   1.00
Mo58   Mo    0.39331   0.12581   0.05092   0.00000  Uiso   1.00
Se59   Se    0.33383   0.19771   0.02257   0.00000  Uiso   1.00
Se60   Se    0.32224   0.19043   0.07788   0.00000  Uiso   1.00
Mo61   Mo    0.59515   0.32252   0.05149   0.00000  Uiso   1.00
Se62   Se    0.53487   0.39612   0.02441   0.00000  Uiso   1.00
Se63   Se    0.52318   0.38519   0.07933   0.00000  Uiso   1.00
Mo64   Mo    0.79663   0.32610   0.04977   0.00000  Uiso   1.00
Se65   Se    0.73015   0.39534   0.02286   0.00000  Uiso   1.00
Se66   Se    0.73029   0.39180   0.07767   0.00000  Uiso   1.00
Mo67   Mo    0.99572   0.32452   0.05247   0.00000  Uiso   1.00
Se68   Se    0.93796   0.39453   0.02365   0.00000  Uiso   1.00
Se69   Se    0.92529   0.39083   0.07849   0.00000  Uiso   1.00
Mo70   Mo    0.18997   0.32515   0.05029   0.00000  Uiso   1.00
Se71   Se    0.12794   0.39735   0.02351   0.00000  Uiso   1.00
Se72   Se    0.12672   0.39059   0.07976   0.00000  Uiso   1.00
Mo73   Mo    0.39431   0.32587   0.05067   0.00000  Uiso   1.00
Se74   Se    0.32830   0.39462   0.02311   0.00000  Uiso   1.00
Se75   Se    0.31969   0.38701   0.07778   0.00000  Uiso   1.00
Si76   Si    0.04210   0.10778   0.16078   0.00000  Uiso   1.00
Si77   Si    0.16349   0.10492   0.18513   0.00000  Uiso   1.00
Si78   Si    0.16016  -0.02269   0.21097   0.00000  Uiso   1.00
Si79   Si    0.04297  -0.01596   0.13525   0.00000  Uiso   1.00
Si80   Si    0.29391   0.10951   0.16069   0.00000  Uiso   1.00
Si81   Si    0.41408   0.10299   0.18478   0.00000  Uiso   1.00
Si82   Si    0.41167  -0.02474   0.21059   0.00000  Uiso   1.00
Si83   Si    0.29485  -0.01609   0.13521   0.00000  Uiso   1.00
Si84   Si    0.54364   0.10529   0.15996   0.00000  Uiso   1.00
Si85   Si    0.66586   0.10218   0.18617   0.00000  Uiso   1.00
Si86   Si    0.66205  -0.02190   0.20985   0.00000  Uiso   1.00
Si87   Si    0.54526  -0.01475   0.13613   0.00000  Uiso   1.00
Si88   Si    0.79506   0.10766   0.16099   0.00000  Uiso   1.00
Si89   Si    0.91643   0.10473   0.18587   0.00000  Uiso   1.00
Si90   Si    0.91331  -0.02504   0.20935   0.00000  Uiso   1.00
Si91   Si    0.79728  -0.01605   0.13529   0.00000  Uiso   1.00
Si92   Si    0.04251   0.36047   0.16011   0.00000  Uiso   1.00
Si93   Si    0.16597   0.35516   0.18517   0.00000  Uiso   1.00
Si94   Si    0.16207   0.22869   0.21035   0.00000  Uiso   1.00
Si95   Si    0.04561   0.23760   0.13606   0.00000  Uiso   1.00
Si96   Si    0.29370   0.35863   0.16016   0.00000  Uiso   1.00
Si97   Si    0.41719   0.35405   0.18490   0.00000  Uiso   1.00
Si98   Si    0.41291   0.23015   0.21082   0.00000  Uiso   1.00
Si99   Si    0.29621   0.23590   0.13621   0.00000  Uiso   1.00
Si100  Si    0.54544   0.35993   0.16050   0.00000  Uiso   1.00
Si101  Si    0.66896   0.35778   0.18531   0.00000  Uiso   1.00
Si102  Si    0.66423   0.22716   0.21015   0.00000  Uiso   1.00
Si103  Si    0.54771   0.23602   0.13586   0.00000  Uiso   1.00
Si104  Si    0.79394   0.35840   0.16065   0.00000  Uiso   1.00
Si105  Si    0.92073   0.35861   0.18665   0.00000  Uiso   1.00
Si106  Si    0.91529   0.22851   0.20946   0.00000  Uiso   1.00
Si107  Si    0.79814   0.23641   0.13583   0.00000  Uiso   1.00
Si108  Si    0.04616   0.60770   0.16094   0.00000  Uiso   1.00
Si109  Si    0.16625   0.60578   0.18520   0.00000  Uiso   1.00
Si110  Si    0.16354   0.48186   0.21015   0.00000  Uiso   1.00
Si111  Si    0.04679   0.48731   0.13657   0.00000  Uiso   1.00
Si112  Si    0.29483   0.61076   0.16027   0.00000  Uiso   1.00
Si113  Si    0.41909   0.61027   0.18536   0.00000  Uiso   1.00
Si114  Si    0.41448   0.48138   0.21086   0.00000  Uiso   1.00
Si115  Si    0.29736   0.48756   0.13611   0.00000  Uiso   1.00
Si116  Si    0.54648   0.61196   0.16056   0.00000  Uiso   1.00
Si117  Si    0.66926   0.60678   0.18531   0.00000  Uiso   1.00
Si118  Si    0.66600   0.47919   0.21002   0.00000  Uiso   1.00
Si119  Si    0.54936   0.48678   0.13586   0.00000  Uiso   1.00
Si120  Si    0.79885   0.60816   0.16048   0.00000  Uiso   1.00
Si121  Si    0.91984   0.60590   0.18549   0.00000  Uiso   1.00
Si122  Si    0.91678   0.47844   0.20929   0.00000  Uiso   1.00
Si123  Si    0.80004   0.48992   0.13599   0.00000  Uiso   1.00
Si124  Si    0.04338   0.86066   0.16113   0.00000  Uiso   1.00
Si125  Si    0.16782   0.85753   0.18513   0.00000  Uiso   1.00
Si126  Si    0.16499   0.73150   0.21044   0.00000  Uiso   1.00
Si127  Si    0.04875   0.74171   0.13558   0.00000  Uiso   1.00
Si128  Si    0.29714   0.86025   0.16038   0.00000  Uiso   1.00
Si129  Si    0.42180   0.86130   0.18531   0.00000  Uiso   1.00
Si130  Si    0.41642   0.72949   0.21028   0.00000  Uiso   1.00
Si131  Si    0.29940   0.73948   0.13598   0.00000  Uiso   1.00
Si132  Si    0.55005   0.86490   0.16123   0.00000  Uiso   1.00
Si133  Si    0.67056   0.86316   0.18478   0.00000  Uiso   1.00
Si134  Si    0.66797   0.73073   0.21080   0.00000  Uiso   1.00
Si135  Si    0.55070   0.73682   0.13554   0.00000  Uiso   1.00
Si136  Si    0.79850   0.86054   0.16060   0.00000  Uiso   1.00
Si137  Si    0.92592   0.86226   0.18588   0.00000  Uiso   1.00
Si138  Si    0.91852   0.73260   0.21022   0.00000  Uiso   1.00
Si139  Si    0.80137   0.74033   0.13565   0.00000  Uiso   1.00
loop_
_geom_bond_atom_site_label_1
_geom_bond_atom_site_label_2
_geom_bond_distance
_geom_bond_site_symmetry_2
_ccdc_geom_bond_type
Mo1    Se2     2.476   .     S
Mo1    Se62    2.451   .     S
Mo1    Se5     2.463   .     S
Mo1    Se3     2.464   .     S
Mo1    Se63    2.471   .     S
Mo1    Se6     2.464   .     S
Mo1    Mo16    3.215   .     S
Mo1    Mo73    3.162   .     S
Mo1    Mo4     3.225   .     S
Mo1    Mo13    3.210   .     S
Mo1    Mo19    3.205   .     S
Mo1    Mo61    3.233   .     S
Se2    Mo16    2.459   .     S
Se2    Mo13    2.447   .     S
Se2    Se3     3.249   .     S
Se3    Mo16    2.468   .     S
Se3    Mo13    2.460   .     S
Mo4    Se5     2.459   .     S
Mo4    Se65    2.466   .     S
Mo4    Se8     2.484   .     S
Mo4    Se6     2.489   .     S
Mo4    Se66    2.451   .     S
Mo4    Se9     2.466   .     S
Mo4    Mo19    3.217   .     S
Mo4    Mo61    3.234   .     S
Mo4    Mo7     3.203   .     S
Mo4    Mo22    3.164   .     S
Mo4    Mo64    3.199   .     S
Se5    Mo19    2.439   .     S
Se5    Se6     3.234   .     S
Se6    Mo19    2.457   .     S
Mo7    Se8     2.458   .     S
Mo7    Se68    2.442   .     S
Mo7    Se9     2.439   .     S
Mo7    Se69    2.461   .     S
Mo7    Mo22    3.189   .     S
Mo7    Mo64    3.190   .     S
Mo7    Mo67    3.186   .     S
Mo7    Mo10    3.095   1_655 S
Mo7    Se11    2.456   1_655 S
Mo7    Se12    2.451   1_655 S
Mo7    Mo25    3.147   1_655 S
Se8    Mo22    2.446   .     S
Se8    Se9     3.252   .     S
Se9    Mo22    2.436   .     S
Mo10   Se11    2.462   .     S
Mo10   Se71    2.446   .     S
Mo10   Se14    2.453   .     S
Mo10   Se12    2.444   .     S
Mo10   Se72    2.476   .     S
Mo10   Se15    2.445   .     S
Mo10   Mo25    3.183   .     S
Mo10   Mo13    3.161   .     S
Mo10   Mo28    3.192   .     S
Mo10   Mo70    3.167   .     S
Mo10   Mo7     3.095   1_455 S
Mo10   Mo67    3.160   1_455 S
Se11   Mo25    2.454   .     S
Se11   Se12    3.312   .     S
Se11   Mo7     2.456   1_455 S
Se12   Mo25    2.470   .     S
Se12   Mo7     2.451   1_455 S
Mo13   Se14    2.454   .     S
Mo13   Se74    2.461   .     S
Mo13   Se15    2.457   .     S
Mo13   Se75    2.446   .     S
Mo13   Mo28    3.208   .     S
Mo13   Mo70    3.184   .     S
Mo13   Mo16    3.190   .     S
Mo13   Mo73    3.187   .     S
Se14   Mo28    2.447   .     S
Se14   Se15    3.240   .     S
Se15   Mo28    2.452   .     S
Mo16   Se17    2.473   .     S
Mo16   Se20    2.462   .     S
Mo16   Se18    2.448   .     S
Mo16   Se21    2.469   .     S
Mo16   Mo31    3.129   .     S
Mo16   Mo19    3.198   .     S
Mo16   Mo28    3.166   .     S
Mo16   Mo34    3.228   .     S
Se17   Mo31    2.454   .     S
Se17   Mo28    2.464   .     S
Se17   Se18    3.290   .     S
Se18   Mo31    2.447   .     S
Se18   Mo28    2.445   .     S
Mo19   Se20    2.471   .     S
Mo19   Se23    2.472   .     S
Mo19   Se21    2.469   .     S
Mo19   Se24    2.469   .     S
Mo19   Mo34    3.139   .     S
Mo19   Mo22    3.251   .     S
Mo19   Mo37    3.189   .     S
Se20   Mo34    2.444   .     S
Se20   Se21    3.265   .     S
Se21   Mo34    2.450   .     S
Mo22   Se23    2.452   .     S
Mo22   Se24    2.474   .     S
Mo22   Mo37    3.179   .     S
Mo22   Mo25    3.123   1_655 S
Mo22   Se26    2.448   1_655 S
Mo22   Se27    2.451   1_655 S
Mo22   Mo40    3.110   1_655 S
Se23   Mo37    2.442   .     S
Se23   Se24    3.240   .     S
Se24   Mo37    2.450   .     S
Mo25   Se26    2.462   .     S
Mo25   Se29    2.453   .     S
Mo25   Se27    2.458   .     S
Mo25   Se30    2.453   .     S
Mo25   Mo40    3.166   .     S
Mo25   Mo28    3.154   .     S
Mo25   Mo43    3.192   .     S
Mo25   Mo7     3.147   1_455 S
Mo25   Mo22    3.123   1_455 S
Se26   Mo40    2.461   .     S
Se26   Se27    3.324   .     S
Se26   Mo22    2.448   1_455 S
Se27   Mo40    2.459   .     S
Se27   Mo22    2.451   1_455 S
Mo28   Se29    2.454   .     S
Mo28   Se30    2.458   .     S
Mo28   Mo43    3.151   .     S
Mo28   Mo31    3.177   .     S
Se29   Mo43    2.437   .     S
Se29   Se30    3.261   .     S
Se30   Mo43    2.441   .     S
Mo31   Se32    2.466   .     S
Mo31   Se35    2.467   .     S
Mo31   Se33    2.455   .     S
Mo31   Se36    2.474   .     S
Mo31   Mo34    3.188   .     S
Mo31   Mo43    3.191   .     S
Mo31   Mo46    3.155   1_565 S
Mo31   Mo49    3.120   1_565 S
Se32   Mo43    2.477   .     S
Se32   Se33    3.312   .     S
Se32   Mo46    2.443   1_565 S
Se33   Mo43    2.453   .     S
Se33   Mo46    2.448   1_565 S
Mo34   Se35    2.459   .     S
Mo34   Se38    2.464   .     S
Mo34   Se36    2.452   .     S
Mo34   Se39    2.478   .     S
Mo34   Mo37    3.190   .     S
Mo34   Mo49    3.171   1_565 S
Mo34   Mo52    3.099   1_565 S
Se35   Se36    3.294   .     S
Se35   Mo49    2.458   1_565 S
Se36   Mo49    2.436   1_565 S
Mo37   Se38    2.441   .     S
Mo37   Se39    2.457   .     S
Mo37   Mo40    3.094   1_655 S
Mo37   Se41    2.470   1_655 S
Mo37   Se42    2.437   1_655 S
Mo37   Mo52    3.201   1_565 S
Mo37   Mo55    3.118   1_665 S
Se38   Se39    3.274   .     S
Se38   Mo52    2.437   1_565 S
Se39   Mo52    2.442   1_565 S
Mo40   Se41    2.478   .     S
Mo40   Se44    2.448   .     S
Mo40   Se42    2.468   .     S
Mo40   Se45    2.461   .     S
Mo40   Mo43    3.230   .     S
Mo40   Mo22    3.110   1_455 S
Mo40   Mo37    3.094   1_455 S
Mo40   Mo55    3.233   1_565 S
Mo40   Mo58    3.151   1_565 S
Se41   Se42    3.322   .     S
Se41   Mo37    2.470   1_455 S
Se41   Mo55    2.459   1_565 S
Se42   Mo37    2.437   1_455 S
Se42   Mo55    2.465   1_565 S
Mo43   Se44    2.459   .     S
Mo43   Se45    2.477   .     S
Mo43   Mo46    3.082   1_565 S
Mo43   Mo58    3.173   1_565 S
Se44   Se45    3.250   .     S
Se44   Mo58    2.431   1_565 S
Se45   Mo58    2.447   1_565 S
Mo46   Se47    2.447   .     S
Mo46   Se50    2.463   .     S
Mo46   Se48    2.467   .     S
Mo46   Se51    2.444   .     S
Mo46   Mo61    3.160   .     S
Mo46   Mo49    3.159   .     S
Mo46   Mo58    3.217   .     S
Mo46   Mo64    3.198   .     S
Mo46   Mo31    3.155   1_545 S
Mo46   Se32    2.443   1_545 S
Mo46   Mo43    3.082   1_545 S
Mo46   Se33    2.448   1_545 S
Se47   Mo61    2.466   .     S
Se47   Mo58    2.455   .     S
Se47   Se48    3.287   .     S
Se48   Mo61    2.474   .     S
Se48   Mo58    2.467   .     S
Mo49   Se50    2.473   .     S
Mo49   Se53    2.426   .     S
Mo49   Se51    2.436   .     S
Mo49   Se54    2.480   .     S
Mo49   Mo64    3.165   .     S
Mo49   Mo52    3.178   .     S
Mo49   Mo67    3.166   .     S
Mo49   Mo31    3.120   1_545 S
Mo49   Se35    2.458   1_545 S
Mo49   Mo34    3.171   1_545 S
Mo49   Se36    2.436   1_545 S
Se50   Mo64    2.472   .     S
Se50   Se51    3.268   .     S
Se51   Mo64    2.444   .     S
Mo52   Se53    2.438   .     S
Mo52   Se54    2.479   .     S
Mo52   Mo67    3.138   .     S
Mo52   Mo37    3.201   1_545 S
Mo52   Mo34    3.099   1_545 S
Mo52   Se38    2.437   1_545 S
Mo52   Se39    2.442   1_545 S
Mo52   Mo55    3.137   1_655 S
Mo52   Se56    2.469   1_655 S
Mo52   Se57    2.427   1_655 S
Mo52   Mo70    3.110   1_655 S
Se53   Mo67    2.443   .     S
Se53   Se54    3.281   .     S
Se54   Mo67    2.458   .     S
Mo55   Se56    2.485   .     S
Mo55   Se59    2.465   .     S
Mo55   Se57    2.486   .     S
Mo55   Se60    2.465   .     S
Mo55   Mo70    3.140   .     S
Mo55   Mo58    3.204   .     S
Mo55   Mo73    3.142   .     S
Mo55   Mo52    3.137   1_455 S
Mo55   Mo40    3.233   1_545 S
Mo55   Se41    2.459   1_545 S
Mo55   Mo37    3.118   1_445 S
Mo55   Se42    2.465   1_545 S
Se56   Mo70    2.460   .     S
Se56   Se57    3.340   .     S
Se56   Mo52    2.469   1_455 S
Se57   Mo70    2.436   .     S
Se57   Mo52    2.427   1_455 S
Mo58   Se59    2.470   .     S
Mo58   Se60    2.454   .     S
Mo58   Mo73    3.170   .     S
Mo58   Mo61    3.152   .     S
Mo58   Se44    2.431   1_545 S
Mo58   Mo40    3.151   1_545 S
Mo58   Mo43    3.173   1_545 S
Mo58   Se45    2.447   1_545 S
Se59   Mo73    2.448   .     S
Se59   Se60    3.269   .     S
Se60   Mo73    2.427   .     S
Mo61   Se62    2.446   .     S
Mo61   Se65    2.475   .     S
Mo61   Se63    2.477   .     S
Mo61   Se66    2.447   .     S
Mo61   Mo64    3.173   .     S
Mo61   Mo73    3.220   .     S
Se62   Mo73    2.442   .     S
Se62   Se63    3.246   .     S
Se63   Mo73    2.482   .     S
Mo64   Se65    2.458   .     S
Mo64   Se68    2.446   .     S
Mo64   Se66    2.453   .     S
Mo64   Se69    2.482   .     S
Mo64   Mo67    3.183   .     S
Se65   Se66    3.240   .     S
Mo67   Se68    2.453   .     S
Mo67   Se69    2.429   .     S
Mo67   Mo10    3.160   1_655 S
Mo67   Mo70    3.082   1_655 S
Mo67   Se71    2.461   1_655 S
Mo67   Se72    2.447   1_655 S
Se68   Se69    3.243   .     S
Mo70   Se71    2.438   .     S
Mo70   Se74    2.453   .     S
Mo70   Se72    2.484   .     S
Mo70   Se75    2.442   .     S
Mo70   Mo73    3.242   .     S
Mo70   Mo67    3.082   1_455 S
Mo70   Mo52    3.110   1_455 S
Se71   Se72    3.325   .     S
Se71   Mo67    2.461   1_455 S
Se72   Mo67    2.447   1_455 S
Mo73   Se74    2.474   .     S
Mo73   Se75    2.461   .     S
Se74   Se75    3.231   .     S
Si76   Si95    2.490   .     S
Si76   Si79    2.499   .     S
Si76   Si77    2.444   .     S
Si76   Si89    2.447   1_455 S
Si77   Si94    2.492   .     S
Si77   Si78    2.502   .     S
Si77   Si80    2.476   .     S
Si78   Si125   2.504   1_545 S
Si79   Si124   2.474   1_545 S
Si80   Si99    2.445   .     S
Si80   Si83    2.521   .     S
Si80   Si81    2.444   .     S
Si81   Si98    2.563   .     S
Si81   Si82    2.508   .     S
Si81   Si84    2.493   .     S
Si82   Si129   2.427   1_545 S
Si83   Si128   2.465   1_545 S
Si84   Si103   2.477   .     S
Si84   Si87    2.396   .     S
Si84   Si85    2.524   .     S
Si85   Si102   2.465   .     S
Si85   Si86    2.378   .     S
Si85   Si88    2.480   .     S
Si86   Si133   2.421   1_545 S
Si87   Si132   2.438   1_545 S
Si88   Si107   2.494   .     S
Si88   Si91    2.513   .     S
Si88   Si89    2.464   .     S
Si89   Si106   2.432   .     S
Si89   Si90    2.450   .     S
Si89   Si76    2.447   1_655 S
Si90   Si137   2.363   1_545 S
Si91   Si136   2.459   1_545 S
Si92   Si111   2.406   .     S
Si92   Si95    2.449   .     S
Si92   Si93    2.513   .     S
Si92   Si105   2.459   1_455 S
Si93   Si110   2.527   .     S
Si93   Si94    2.460   .     S
Si93   Si96    2.468   .     S
Si96   Si115   2.454   .     S
Si96   Si99    2.440   .     S
Si96   Si97    2.497   .     S
Si97   Si114   2.572   .     S
Si97   Si98    2.452   .     S
Si97   Si100   2.438   .     S
Si100  Si119   2.446   .     S
Si100  Si103   2.478   .     S
Si100  Si101   2.484   .     S
Si101  Si118   2.453   .     S
Si101  Si102   2.496   .     S
Si101  Si104   2.439   .     S
Si104  Si123   2.493   .     S
Si104  Si107   2.472   .     S
Si104  Si105   2.553   .     S
Si105  Si122   2.367   .     S
Si105  Si106   2.417   .     S
Si105  Si92    2.459   1_655 S
Si108  Si127   2.571   .     S
Si108  Si111   2.413   .     S
Si108  Si109   2.419   .     S
Si108  Si121   2.445   1_455 S
Si109  Si126   2.516   .     S
Si109  Si110   2.428   .     S
Si109  Si112   2.466   .     S
Si112  Si131   2.454   .     S
Si112  Si115   2.454   .     S
Si112  Si113   2.493   .     S
Si113  Si130   2.431   .     S
Si113  Si114   2.498   .     S
Si113  Si116   2.468   .     S
Si116  Si135   2.432   .     S
Si116  Si119   2.500   .     S
Si116  Si117   2.492   .     S
Si117  Si134   2.503   .     S
Si117  Si118   2.462   .     S
Si117  Si120   2.499   .     S
Si120  Si139   2.530   .     S
Si120  Si123   2.393   .     S
Si120  Si121   2.459   .     S
Si121  Si138   2.511   .     S
Si121  Si122   2.431   .     S
Si121  Si108   2.445   1_655 S
Si124  Si127   2.468   .     S
Si124  Si125   2.474   .     S
Si124  Si79    2.474   1_565 S
Si124  Si137   2.363   1_455 S
Si125  Si126   2.466   .     S
Si125  Si128   2.484   .     S
Si125  Si78    2.504   1_565 S
Si128  Si131   2.429   .     S
Si128  Si129   2.482   .     S
Si128  Si83    2.465   1_565 S
Si129  Si130   2.512   .     S
Si129  Si132   2.442   .     S
Si129  Si82    2.427   1_565 S
Si132  Si135   2.558   .     S
Si132  Si133   2.398   .     S
Si132  Si87    2.438   1_565 S
Si133  Si134   2.573   .     S
Si133  Si136   2.483   .     S
Si133  Si86    2.421   1_565 S
Si136  Si139   2.446   .     S
Si136  Si137   2.526   .     S
Si136  Si91    2.459   1_565 S
Si137  Si138   2.450   .     S
Si137  Si90    2.363   1_565 S
Si137  Si124   2.363   1_655 S
