data_Si-WS2\from\MoS2
_audit_creation_date              2023-10-20
_audit_creation_method            'Materials Studio'
_symmetry_space_group_name_H-M    'P1'
_symmetry_Int_Tables_number       1
_symmetry_cell_setting            triclinic
loop_
_symmetry_equiv_pos_as_xyz
  x,y,z
_cell_length_a                    15.9926
_cell_length_b                    15.9357
_cell_length_c                    59.2474
_cell_angle_alpha                 89.4461
_cell_angle_beta                  89.0278
_cell_angle_gamma                 120.0727
loop_
_atom_site_label
_atom_site_type_symbol
_atom_site_fract_x
_atom_site_fract_y
_atom_site_fract_z
_atom_site_U_iso_or_equiv
_atom_site_adp_type
_atom_site_occupancy
W1     W     0.58819   0.52407   0.05218   0.00000  Uiso   1.00
S2     S     0.52378   0.58957   0.02346   0.00000  Uiso   1.00
S3     S     0.51603   0.58962   0.07885   0.00000  Uiso   1.00
W4     W     0.79105   0.52685   0.05003   0.00000  Uiso   1.00
S5     S     0.72183   0.59561   0.02388   0.00000  Uiso   1.00
S6     S     0.72158   0.58875   0.07891   0.00000  Uiso   1.00
W7     W     0.99362   0.52623   0.05043   0.00000  Uiso   1.00
S8     S     0.92918   0.59355   0.02226   0.00000  Uiso   1.00
S9     S     0.92287   0.59004   0.07742   0.00000  Uiso   1.00
W10    W     0.19079   0.52486   0.05126   0.00000  Uiso   1.00
S11    S     0.13042   0.59391   0.02287   0.00000  Uiso   1.00
S12    S     0.12196   0.58903   0.07877   0.00000  Uiso   1.00
W13    W     0.38822   0.52454   0.05068   0.00000  Uiso   1.00
S14    S     0.32474   0.59314   0.02306   0.00000  Uiso   1.00
S15    S     0.32194   0.59142   0.07841   0.00000  Uiso   1.00
W16    W     0.58600   0.72365   0.05034   0.00000  Uiso   1.00
S17    S     0.52315   0.79108   0.02187   0.00000  Uiso   1.00
S18    S     0.51830   0.78927   0.07782   0.00000  Uiso   1.00
W19    W     0.78764   0.72588   0.05147   0.00000  Uiso   1.00
S20    S     0.72425   0.79438   0.02341   0.00000  Uiso   1.00
S21    S     0.71435   0.78856   0.07851   0.00000  Uiso   1.00
W22    W     0.99178   0.72490   0.04989   0.00000  Uiso   1.00
S23    S     0.92331   0.79346   0.02355   0.00000  Uiso   1.00
S24    S     0.92143   0.78698   0.07823   0.00000  Uiso   1.00
W25    W     0.19193   0.72455   0.05063   0.00000  Uiso   1.00
S26    S     0.12867   0.79232   0.02246   0.00000  Uiso   1.00
S27    S     0.11951   0.78570   0.07818   0.00000  Uiso   1.00
W28    W     0.38969   0.72597   0.05024   0.00000  Uiso   1.00
S29    S     0.32721   0.79581   0.02272   0.00000  Uiso   1.00
S30    S     0.32211   0.79024   0.07830   0.00000  Uiso   1.00
W31    W     0.59046   0.92284   0.04958   0.00000  Uiso   1.00
S32    S     0.52578   0.99048   0.02184   0.00000  Uiso   1.00
S33    S     0.52330   0.98693   0.07767   0.00000  Uiso   1.00
W34    W     0.79053   0.92537   0.05105   0.00000  Uiso   1.00
S35    S     0.72951   0.99374   0.02262   0.00000  Uiso   1.00
S36    S     0.71750   0.98662   0.07827   0.00000  Uiso   1.00
W37    W     0.99217   0.92527   0.05104   0.00000  Uiso   1.00
S38    S     0.92844   0.99434   0.02364   0.00000  Uiso   1.00
S39    S     0.92271   0.98969   0.07874   0.00000  Uiso   1.00
W40    W     0.18956   0.92284   0.05058   0.00000  Uiso   1.00
S41    S     0.12689   0.99286   0.02267   0.00000  Uiso   1.00
S42    S     0.12454   0.99320   0.07785   0.00000  Uiso   1.00
W43    W     0.39212   0.92549   0.05054   0.00000  Uiso   1.00
S44    S     0.32616   0.99296   0.02325   0.00000  Uiso   1.00
S45    S     0.31946   0.98650   0.07838   0.00000  Uiso   1.00
W46    W     0.58935   0.12157   0.04961   0.00000  Uiso   1.00
S47    S     0.52474   0.19207   0.02299   0.00000  Uiso   1.00
S48    S     0.51978   0.18172   0.07836   0.00000  Uiso   1.00
W49    W     0.78773   0.12342   0.05082   0.00000  Uiso   1.00
S50    S     0.72618   0.19171   0.02216   0.00000  Uiso   1.00
S51    S     0.71785   0.18948   0.07736   0.00000  Uiso   1.00
W52    W     0.98945   0.12572   0.05105   0.00000  Uiso   1.00
S53    S     0.92558   0.19639   0.02429   0.00000  Uiso   1.00
S54    S     0.91635   0.18609   0.07923   0.00000  Uiso   1.00
W55    W     0.19108   0.12713   0.04955   0.00000  Uiso   1.00
S56    S     0.12261   0.19412   0.02221   0.00000  Uiso   1.00
S57    S     0.12077   0.18968   0.07775   0.00000  Uiso   1.00
W58    W     0.38982   0.12371   0.05083   0.00000  Uiso   1.00
S59    S     0.33067   0.19635   0.02259   0.00000  Uiso   1.00
S60    S     0.32007   0.18984   0.07772   0.00000  Uiso   1.00
W61    W     0.58987   0.32198   0.05133   0.00000  Uiso   1.00
S62    S     0.53014   0.39528   0.02409   0.00000  Uiso   1.00
S63    S     0.51884   0.38481   0.07935   0.00000  Uiso   1.00
W64    W     0.79023   0.32537   0.04969   0.00000  Uiso   1.00
S65    S     0.72364   0.39359   0.02264   0.00000  Uiso   1.00
S66    S     0.72372   0.39102   0.07769   0.00000  Uiso   1.00
W67    W     0.99047   0.32539   0.05223   0.00000  Uiso   1.00
S68    S     0.93028   0.39350   0.02340   0.00000  Uiso   1.00
S69    S     0.91822   0.39057   0.07836   0.00000  Uiso   1.00
W70    W     0.18806   0.32478   0.05020   0.00000  Uiso   1.00
S71    S     0.12323   0.39436   0.02355   0.00000  Uiso   1.00
S72    S     0.12263   0.38925   0.07939   0.00000  Uiso   1.00
W73    W     0.39166   0.32616   0.05054   0.00000  Uiso   1.00
S74    S     0.32525   0.39332   0.02287   0.00000  Uiso   1.00
S75    S     0.31799   0.38714   0.07774   0.00000  Uiso   1.00
Si76   Si    0.03942   0.10869   0.18527   0.00000  Uiso   1.00
Si77   Si    0.16080   0.10466   0.21025   0.00000  Uiso   1.00
Si78   Si    0.15846  -0.02157   0.23527   0.00000  Uiso   1.00
Si79   Si    0.04104  -0.01741   0.16023   0.00000  Uiso   1.00
Si80   Si    0.29003   0.10944   0.18525   0.00000  Uiso   1.00
Si81   Si    0.40996   0.10304   0.20951   0.00000  Uiso   1.00
Si82   Si    0.40850  -0.02373   0.23505   0.00000  Uiso   1.00
Si83   Si    0.29166  -0.01653   0.16008   0.00000  Uiso   1.00
Si84   Si    0.53821   0.10595   0.18493   0.00000  Uiso   1.00
Si85   Si    0.65983   0.10390   0.21066   0.00000  Uiso   1.00
Si86   Si    0.65728  -0.02164   0.23464   0.00000  Uiso   1.00
Si87   Si    0.54041  -0.01566   0.16073   0.00000  Uiso   1.00
Si88   Si    0.78749   0.10835   0.18570   0.00000  Uiso   1.00
Si89   Si    0.90928   0.10509   0.21051   0.00000  Uiso   1.00
Si90   Si    0.90696  -0.02325   0.23410   0.00000  Uiso   1.00
Si91   Si    0.79086  -0.01630   0.15987   0.00000  Uiso   1.00
Si92   Si    0.03833   0.35728   0.18529   0.00000  Uiso   1.00
Si93   Si    0.16103   0.35376   0.20997   0.00000  Uiso   1.00
Si94   Si    0.15890   0.22817   0.23479   0.00000  Uiso   1.00
Si95   Si    0.04246   0.23519   0.16102   0.00000  Uiso   1.00
Si96   Si    0.28936   0.35753   0.18468   0.00000  Uiso   1.00
Si97   Si    0.41092   0.35369   0.20949   0.00000  Uiso   1.00
Si98   Si    0.40801   0.22882   0.23553   0.00000  Uiso   1.00
Si99   Si    0.29139   0.23412   0.16116   0.00000  Uiso   1.00
Si100  Si    0.53867   0.35747   0.18492   0.00000  Uiso   1.00
Si101  Si    0.66147   0.35612   0.21026   0.00000  Uiso   1.00
Si102  Si    0.65763   0.22679   0.23458   0.00000  Uiso   1.00
Si103  Si    0.54107   0.23483   0.16087   0.00000  Uiso   1.00
Si104  Si    0.78593   0.35666   0.18521   0.00000  Uiso   1.00
Si105  Si    0.91266   0.35592   0.21056   0.00000  Uiso   1.00
Si106  Si    0.90719   0.22741   0.23427   0.00000  Uiso   1.00
Si107  Si    0.79015   0.23455   0.16072   0.00000  Uiso   1.00
Si108  Si    0.03985   0.60626   0.18572   0.00000  Uiso   1.00
Si109  Si    0.16143   0.60381   0.20986   0.00000  Uiso   1.00
Si110  Si    0.15888   0.47931   0.23483   0.00000  Uiso   1.00
Si111  Si    0.04222   0.48439   0.16096   0.00000  Uiso   1.00
Si112  Si    0.28866   0.60702   0.18501   0.00000  Uiso   1.00
Si113  Si    0.41185   0.60651   0.21018   0.00000  Uiso   1.00
Si114  Si    0.40810   0.47985   0.23527   0.00000  Uiso   1.00
Si115  Si    0.29128   0.48416   0.16105   0.00000  Uiso   1.00
Si116  Si    0.53851   0.60679   0.18557   0.00000  Uiso   1.00
Si117  Si    0.66064   0.60346   0.21032   0.00000  Uiso   1.00
Si118  Si    0.65805   0.47815   0.23426   0.00000  Uiso   1.00
Si119  Si    0.54164   0.48375   0.16075   0.00000  Uiso   1.00
Si120  Si    0.78930   0.60668   0.18538   0.00000  Uiso   1.00
Si121  Si    0.90950   0.60401   0.20980   0.00000  Uiso   1.00
Si122  Si    0.90691   0.47761   0.23447   0.00000  Uiso   1.00
Si123  Si    0.79060   0.48559   0.16064   0.00000  Uiso   1.00
Si124  Si    0.03775   0.85787   0.18539   0.00000  Uiso   1.00
Si125  Si    0.16088   0.85456   0.21015   0.00000  Uiso   1.00
Si126  Si    0.15916   0.72748   0.23512   0.00000  Uiso   1.00
Si127  Si    0.04300   0.73565   0.16045   0.00000  Uiso   1.00
Si128  Si    0.28972   0.85682   0.18485   0.00000  Uiso   1.00
Si129  Si    0.41299   0.85701   0.21037   0.00000  Uiso   1.00
Si130  Si    0.40891   0.72676   0.23473   0.00000  Uiso   1.00
Si131  Si    0.29207   0.73439   0.16065   0.00000  Uiso   1.00
Si132  Si    0.53998   0.86019   0.18573   0.00000  Uiso   1.00
Si133  Si    0.66069   0.85828   0.20965   0.00000  Uiso   1.00
Si134  Si    0.65890   0.72704   0.23516   0.00000  Uiso   1.00
Si135  Si    0.54162   0.73410   0.16006   0.00000  Uiso   1.00
Si136  Si    0.78699   0.85566   0.18540   0.00000  Uiso   1.00
Si137  Si    0.91326   0.85751   0.21066   0.00000  Uiso   1.00
Si138  Si    0.90778   0.72889   0.23491   0.00000  Uiso   1.00
Si139  Si    0.79049   0.73475   0.16045   0.00000  Uiso   1.00
loop_
_geom_bond_atom_site_label_1
_geom_bond_atom_site_label_2
_geom_bond_distance
_geom_bond_site_symmetry_2
_ccdc_geom_bond_type
W1     S2      2.480   .     S
W1     S62     2.460   .     S
W1     S5      2.465   .     S
W1     S3      2.469   .     S
W1     S63     2.480   .     S
W1     S6      2.463   .     S
W1     W16     3.199   .     S
W1     W73     3.149   .     S
W1     W4      3.223   .     S
W1     W13     3.205   .     S
W1     W19     3.199   .     S
W1     W61     3.235   .     S
S2     W16     2.466   .     S
S2     W13     2.444   .     S
S2     S3      3.282   .     S
S3     W16     2.477   .     S
S3     W13     2.462   .     S
W4     S5      2.463   .     S
W4     S65     2.478   .     S
W4     S8      2.491   .     S
W4     S6      2.490   .     S
W4     S66     2.463   .     S
W4     S9      2.472   .     S
W4     W19     3.201   .     S
W4     W61     3.237   .     S
W4     W7      3.245   .     S
W4     W22     3.180   .     S
W4     W64     3.205   .     S
S5     W19     2.454   .     S
S5     S6      3.261   .     S
S6     W19     2.468   .     S
W7     S8      2.476   .     S
W7     S68     2.457   .     S
W7     S9      2.448   .     S
W7     S69     2.473   .     S
W7     W22     3.181   .     S
W7     W64     3.225   .     S
W7     W67     3.176   .     S
W7     W10     3.166   1_655 S
W7     S11     2.469   1_655 S
W7     S12     2.475   1_655 S
W7     W25     3.163   1_655 S
S8     W22     2.467   .     S
S8     S9      3.267   .     S
S9     W22     2.448   .     S
W10    S11     2.461   .     S
W10    S71     2.462   .     S
W10    S14     2.464   .     S
W10    S12     2.452   .     S
W10    S72     2.478   .     S
W10    S15     2.455   .     S
W10    W25     3.173   .     S
W10    W13     3.159   .     S
W10    W28     3.188   .     S
W10    W70     3.168   .     S
W10    W7      3.166   1_455 S
W10    W67     3.187   1_455 S
S11    W25     2.465   .     S
S11    S12     3.311   .     S
S11    W7      2.469   1_455 S
S12    W25     2.478   .     S
S12    W7      2.475   1_455 S
W13    S14     2.457   .     S
W13    S74     2.473   .     S
W13    S15     2.463   .     S
W13    S75     2.456   .     S
W13    W28     3.198   .     S
W13    W70     3.190   .     S
W13    W16     3.164   .     S
W13    W73     3.189   .     S
S14    W28     2.464   .     S
S14    S15     3.279   .     S
S15    W28     2.470   .     S
W16    S17     2.473   .     S
W16    S20     2.460   .     S
W16    S18     2.454   .     S
W16    S21     2.468   .     S
W16    W31     3.139   .     S
W16    W19     3.209   .     S
W16    W28     3.158   .     S
W16    W34     3.241   .     S
S17    W31     2.474   .     S
S17    W28     2.466   .     S
S17    S18     3.314   .     S
S18    W31     2.463   .     S
S18    W28     2.447   .     S
W19    S20     2.473   .     S
W19    S23     2.471   .     S
W19    S21     2.465   .     S
W19    S24     2.469   .     S
W19    W34     3.156   .     S
W19    W22     3.272   .     S
W19    W37     3.221   .     S
S20    W34     2.464   .     S
S20    S21     3.264   .     S
S21    W34     2.467   .     S
W22    S23     2.460   .     S
W22    S24     2.479   .     S
W22    W37     3.191   .     S
W22    W25     3.205   1_655 S
W22    S26     2.465   1_655 S
W22    S27     2.467   1_655 S
W22    W40     3.156   1_655 S
S23    W37     2.467   .     S
S23    S24     3.239   .     S
S24    W37     2.470   .     S
W25    S26     2.468   .     S
W25    S29     2.467   .     S
W25    S27     2.460   .     S
W25    S30     2.466   .     S
W25    W40     3.179   .     S
W25    W28     3.151   .     S
W25    W43     3.198   .     S
W25    W7      3.163   1_455 S
W25    W22     3.205   1_455 S
S26    W40     2.478   .     S
S26    S27     3.300   .     S
S26    W22     2.465   1_455 S
S27    W40     2.474   .     S
S27    W22     2.467   1_455 S
W28    S29     2.455   .     S
W28    S30     2.462   .     S
W28    W43     3.161   .     S
W28    W31     3.170   .     S
S29    W43     2.457   .     S
S29    S30     3.292   .     S
S30    W43     2.460   .     S
W31    S32     2.464   .     S
W31    S35     2.470   .     S
W31    S33     2.457   .     S
W31    S36     2.476   .     S
W31    W34     3.182   .     S
W31    W43     3.193   .     S
W31    W46     3.176   1_565 S
W31    W49     3.175   1_565 S
S32    W43     2.481   .     S
S32    S33     3.307   .     S
S32    W46     2.470   1_565 S
S33    W43     2.456   .     S
S33    W46     2.466   1_565 S
W34    S35     2.462   .     S
W34    S38     2.474   .     S
W34    S36     2.455   .     S
W34    S39     2.488   .     S
W34    W37     3.226   .     S
W34    W49     3.179   1_565 S
W34    W52     3.184   1_565 S
S35    S36     3.297   .     S
S35    W49     2.474   1_565 S
S36    W49     2.465   1_565 S
W37    S38     2.456   .     S
W37    S39     2.469   .     S
W37    W40     3.176   1_655 S
W37    S41     2.479   1_655 S
W37    S42     2.455   1_655 S
W37    W52     3.216   1_565 S
W37    W55     3.194   1_665 S
S38    S39     3.263   .     S
S38    W52     2.458   1_565 S
S39    W52     2.466   1_565 S
W40    S41     2.475   .     S
W40    S44     2.458   .     S
W40    S42     2.469   .     S
W40    S45     2.469   .     S
W40    W43     3.218   .     S
W40    W22     3.156   1_455 S
W40    W37     3.176   1_455 S
W40    W55     3.243   1_565 S
W40    W58     3.199   1_565 S
S41    S42     3.269   .     S
S41    W37     2.479   1_455 S
S41    W55     2.468   1_565 S
S42    W37     2.455   1_455 S
S42    W55     2.468   1_565 S
W43    S44     2.458   .     S
W43    S45     2.473   .     S
W43    W46     3.135   1_565 S
W43    W58     3.177   1_565 S
S44    S45     3.265   .     S
S44    W58     2.458   1_565 S
S45    W58     2.473   1_565 S
W46    S47     2.450   .     S
W46    S50     2.465   .     S
W46    S48     2.468   .     S
W46    S51     2.453   .     S
W46    W61     3.192   .     S
W46    W49     3.160   .     S
W46    W58     3.208   .     S
W46    W64     3.227   .     S
W46    W31     3.176   1_545 S
W46    S32     2.470   1_545 S
W46    W43     3.135   1_545 S
W46    S33     2.466   1_545 S
S47    W61     2.481   .     S
S47    W58     2.460   .     S
S47    S48     3.280   .     S
S48    W61     2.485   .     S
S48    W58     2.460   .     S
W49    S50     2.476   .     S
W49    S53     2.442   .     S
W49    S51     2.446   .     S
W49    S54     2.481   .     S
W49    W64     3.198   .     S
W49    W52     3.208   .     S
W49    W67     3.230   .     S
W49    W31     3.175   1_545 S
W49    S35     2.474   1_545 S
W49    W34     3.179   1_545 S
W49    S36     2.465   1_545 S
S50    W64     2.487   .     S
S50    S51     3.270   .     S
S51    W64     2.464   .     S
W52    S53     2.449   .     S
W52    S54     2.484   .     S
W52    W67     3.175   .     S
W52    W37     3.216   1_545 S
W52    W34     3.184   1_545 S
W52    S38     2.458   1_545 S
W52    S39     2.466   1_545 S
W52    W55     3.213   1_655 S
W52    S56     2.481   1_655 S
W52    S57     2.439   1_655 S
W52    W70     3.170   1_655 S
S53    W67     2.456   .     S
S53    S54     3.255   .     S
S54    W67     2.474   .     S
W55    S56     2.482   .     S
W55    S59     2.476   .     S
W55    S57     2.478   .     S
W55    S60     2.474   .     S
W55    W70     3.175   .     S
W55    W58     3.208   .     S
W55    W73     3.188   .     S
W55    W52     3.213   1_455 S
W55    W40     3.243   1_545 S
W55    S41     2.468   1_545 S
W55    W37     3.194   1_445 S
W55    S42     2.468   1_545 S
S56    W70     2.474   .     S
S56    S57     3.290   .     S
S56    W52     2.481   1_455 S
S57    W70     2.451   .     S
S57    W52     2.439   1_455 S
W58    S59     2.479   .     S
W58    S60     2.458   .     S
W58    W73     3.211   .     S
W58    W61     3.177   .     S
W58    S44     2.458   1_545 S
W58    W40     3.199   1_545 S
W58    W43     3.177   1_545 S
W58    S45     2.473   1_545 S
S59    W73     2.464   .     S
S59    S60     3.265   .     S
S60    W73     2.449   .     S
W61    S62     2.453   .     S
W61    S65     2.482   .     S
W61    S63     2.481   .     S
W61    S66     2.453   .     S
W61    W64     3.177   .     S
W61    W73     3.205   .     S
S62    W73     2.445   .     S
S62    S63     3.274   .     S
S63    W73     2.483   .     S
W64    S65     2.464   .     S
W64    S68     2.456   .     S
W64    S66     2.463   .     S
W64    S69     2.485   .     S
W64    W67     3.208   .     S
S65    S66     3.262   .     S
W67    S68     2.468   .     S
W67    S69     2.446   .     S
W67    W10     3.187   1_655 S
W67    W70     3.165   1_655 S
W67    S71     2.471   1_655 S
W67    S72     2.466   1_655 S
S68    S69     3.257   .     S
W70    S71     2.444   .     S
W70    S74     2.464   .     S
W70    S72     2.488   .     S
W70    S75     2.458   .     S
W70    W73     3.246   .     S
W70    W67     3.165   1_455 S
W70    W52     3.170   1_455 S
S71    S72     3.308   .     S
S71    W67     2.471   1_455 S
S72    W67     2.466   1_455 S
W73    S74     2.475   .     S
W73    S75     2.458   .     S
S74    S75     3.250   .     S
Si76   Si95    2.444   .     S
Si76   Si79    2.519   .     S
Si76   Si77    2.487   .     S
Si76   Si89    2.519   1_455 S
Si77   Si94    2.470   .     S
Si77   Si78    2.472   .     S
Si77   Si80    2.491   .     S
Si78   Si125   2.499   1_545 S
Si79   Si124   2.452   1_545 S
Si80   Si99    2.426   .     S
Si80   Si83    2.523   .     S
Si80   Si81    2.458   .     S
Si81   Si98    2.552   .     S
Si81   Si82    2.503   .     S
Si81   Si84    2.476   .     S
Si82   Si129   2.437   1_545 S
Si83   Si128   2.471   1_545 S
Si84   Si103   2.470   .     S
Si84   Si87    2.436   .     S
Si84   Si85    2.504   .     S
Si85   Si102   2.442   .     S
Si85   Si86    2.426   .     S
Si85   Si88    2.472   .     S
Si86   Si133   2.452   1_545 S
Si87   Si132   2.457   1_545 S
Si88   Si107   2.468   .     S
Si88   Si91    2.541   .     S
Si88   Si89    2.481   .     S
Si89   Si106   2.429   .     S
Si89   Si90    2.451   .     S
Si89   Si76    2.519   1_655 S
Si90   Si137   2.406   1_545 S
Si91   Si136   2.503   1_545 S
Si92   Si111   2.449   .     S
Si92   Si95    2.457   .     S
Si92   Si93    2.490   .     S
Si92   Si105   2.477   1_455 S
Si93   Si110   2.509   .     S
Si93   Si94    2.458   .     S
Si93   Si96    2.496   .     S
Si96   Si115   2.432   .     S
Si96   Si99    2.434   .     S
Si96   Si97    2.482   .     S
Si97   Si114   2.554   .     S
Si97   Si98    2.488   .     S
Si97   Si100   2.464   .     S
Si100  Si119   2.439   .     S
Si100  Si103   2.445   .     S
Si100  Si101   2.501   .     S
Si101  Si118   2.442   .     S
Si101  Si102   2.478   .     S
Si101  Si104   2.459   .     S
Si104  Si123   2.476   .     S
Si104  Si107   2.466   .     S
Si104  Si105   2.547   .     S
Si105  Si122   2.450   .     S
Si105  Si106   2.436   .     S
Si105  Si92    2.477   1_655 S
Si108  Si127   2.516   .     S
Si108  Si111   2.460   .     S
Si108  Si109   2.449   .     S
Si108  Si121   2.491   1_455 S
Si109  Si126   2.500   .     S
Si109  Si110   2.447   .     S
Si109  Si112   2.470   .     S
Si112  Si131   2.457   .     S
Si112  Si115   2.446   .     S
Si112  Si113   2.494   .     S
Si113  Si130   2.435   .     S
Si113  Si114   2.471   .     S
Si113  Si116   2.474   .     S
Si116  Si135   2.498   .     S
Si116  Si119   2.482   .     S
Si116  Si117   2.483   .     S
Si117  Si134   2.481   .     S
Si117  Si118   2.421   .     S
Si117  Si120   2.492   .     S
Si120  Si139   2.500   .     S
Si120  Si123   2.443   .     S
Si120  Si121   2.443   .     S
Si121  Si138   2.507   .     S
Si121  Si122   2.460   .     S
Si121  Si108   2.491   1_655 S
Si124  Si127   2.490   .     S
Si124  Si125   2.496   .     S
Si124  Si79    2.452   1_565 S
Si124  Si137   2.468   1_455 S
Si125  Si126   2.485   .     S
Si125  Si128   2.513   .     S
Si125  Si78    2.499   1_565 S
Si128  Si131   2.447   .     S
Si128  Si129   2.504   .     S
Si128  Si83    2.471   1_565 S
Si129  Si130   2.489   .     S
Si129  Si132   2.460   .     S
Si129  Si82    2.437   1_565 S
Si132  Si135   2.542   .     S
Si132  Si133   2.426   .     S
Si132  Si87    2.457   1_565 S
Si133  Si134   2.557   .     S
Si133  Si136   2.476   .     S
Si133  Si86    2.452   1_565 S
Si136  Si139   2.462   .     S
Si136  Si137   2.522   .     S
Si136  Si91    2.503   1_565 S
Si137  Si138   2.456   .     S
Si137  Si90    2.406   1_565 S
Si137  Si124   2.468   1_655 S
