data_Si-WSe2
_audit_creation_date              2023-10-20
_audit_creation_method            'Materials Studio'
_symmetry_space_group_name_H-M    'P1'
_symmetry_Int_Tables_number       1
_symmetry_cell_setting            triclinic
loop_
_symmetry_equiv_pos_as_xyz
  x,y,z
_cell_length_a                    16.1130
_cell_length_b                    16.0378
_cell_length_c                    60.2519
_cell_angle_alpha                 89.7745
_cell_angle_beta                  89.1941
_cell_angle_gamma                 119.5173
loop_
_atom_site_label
_atom_site_type_symbol
_atom_site_fract_x
_atom_site_fract_y
_atom_site_fract_z
_atom_site_U_iso_or_equiv
_atom_site_adp_type
_atom_site_occupancy
W1     W     0.57924   0.51829   0.05153   0.00000  Uiso   1.00
Se2    Se    0.51461   0.58399   0.02039   0.00000  Uiso   1.00
Se3    Se    0.50840   0.58670   0.08008   0.00000  Uiso   1.00
W4     W     0.77932   0.52033   0.04897   0.00000  Uiso   1.00
Se5    Se    0.71071   0.59029   0.02100   0.00000  Uiso   1.00
Se6    Se    0.71163   0.58496   0.08028   0.00000  Uiso   1.00
W7     W     0.98414   0.52162   0.04964   0.00000  Uiso   1.00
Se8    Se    0.91856   0.58808   0.01958   0.00000  Uiso   1.00
Se9    Se    0.91229   0.58610   0.07797   0.00000  Uiso   1.00
W10    W     0.18402   0.51926   0.05036   0.00000  Uiso   1.00
Se11   Se    0.12147   0.58691   0.02045   0.00000  Uiso   1.00
Se12   Se    0.11452   0.58326   0.07968   0.00000  Uiso   1.00
W13    W     0.38098   0.52039   0.04974   0.00000  Uiso   1.00
Se14   Se    0.31729   0.58896   0.02005   0.00000  Uiso   1.00
Se15   Se    0.31576   0.58824   0.07963   0.00000  Uiso   1.00
W16    W     0.57387   0.71429   0.04924   0.00000  Uiso   1.00
Se17   Se    0.51169   0.78295   0.01873   0.00000  Uiso   1.00
Se18   Se    0.50874   0.78262   0.07883   0.00000  Uiso   1.00
W19    W     0.77311   0.71638   0.05057   0.00000  Uiso   1.00
Se20   Se    0.71157   0.78689   0.02055   0.00000  Uiso   1.00
Se21   Se    0.70127   0.78004   0.07969   0.00000  Uiso   1.00
W22    W     0.98099   0.71710   0.04891   0.00000  Uiso   1.00
Se23   Se    0.90960   0.78398   0.02111   0.00000  Uiso   1.00
Se24   Se    0.90916   0.78147   0.07861   0.00000  Uiso   1.00
W25    W     0.18158   0.71492   0.04982   0.00000  Uiso   1.00
Se26   Se    0.11850   0.78389   0.01987   0.00000  Uiso   1.00
Se27   Se    0.11014   0.77773   0.07902   0.00000  Uiso   1.00
W28    W     0.37956   0.71715   0.04939   0.00000  Uiso   1.00
Se29   Se    0.31634   0.78692   0.02012   0.00000  Uiso   1.00
Se30   Se    0.31282   0.78330   0.07928   0.00000  Uiso   1.00
W31    W     0.57569   0.91204   0.04865   0.00000  Uiso   1.00
Se32   Se    0.51464   0.98432   0.01953   0.00000  Uiso   1.00
Se33   Se    0.51278   0.98087   0.07816   0.00000  Uiso   1.00
W34    W     0.77281   0.91409   0.05049   0.00000  Uiso   1.00
Se35   Se    0.71530   0.98594   0.02062   0.00000  Uiso   1.00
Se36   Se    0.70451   0.98112   0.07898   0.00000  Uiso   1.00
W37    W     0.97682   0.91590   0.04996   0.00000  Uiso   1.00
Se38   Se    0.91204   0.98790   0.02206   0.00000  Uiso   1.00
Se39   Se    0.90942   0.98573   0.07868   0.00000  Uiso   1.00
W40    W     0.17914   0.91251   0.04982   0.00000  Uiso   1.00
Se41   Se    0.11515   0.98399   0.02115   0.00000  Uiso   1.00
Se42   Se    0.11298   0.98582   0.07778   0.00000  Uiso   1.00
W43    W     0.38009   0.91473   0.04958   0.00000  Uiso   1.00
Se44   Se    0.31653   0.98551   0.02100   0.00000  Uiso   1.00
Se45   Se    0.31195   0.98197   0.07872   0.00000  Uiso   1.00
W46    W     0.58163   0.11637   0.04871   0.00000  Uiso   1.00
Se47   Se    0.51971   0.19023   0.02033   0.00000  Uiso   1.00
Se48   Se    0.51636   0.18164   0.07898   0.00000  Uiso   1.00
W49    W     0.77869   0.11847   0.04988   0.00000  Uiso   1.00
Se50   Se    0.71902   0.18978   0.01956   0.00000  Uiso   1.00
Se51   Se    0.71205   0.18800   0.07814   0.00000  Uiso   1.00
W52    W     0.98174   0.12313   0.05017   0.00000  Uiso   1.00
Se53   Se    0.91865   0.19554   0.02166   0.00000  Uiso   1.00
Se54   Se    0.91086   0.18823   0.07969   0.00000  Uiso   1.00
W55    W     0.18630   0.12179   0.04879   0.00000  Uiso   1.00
Se56   Se    0.11939   0.19102   0.02003   0.00000  Uiso   1.00
Se57   Se    0.11822   0.18888   0.07823   0.00000  Uiso   1.00
W58    W     0.38382   0.11918   0.04977   0.00000  Uiso   1.00
Se59   Se    0.32638   0.19417   0.01994   0.00000  Uiso   1.00
Se60   Se    0.31861   0.19061   0.07845   0.00000  Uiso   1.00
W61    W     0.58291   0.31903   0.05039   0.00000  Uiso   1.00
Se62   Se    0.52397   0.39388   0.02129   0.00000  Uiso   1.00
Se63   Se    0.51377   0.38464   0.08096   0.00000  Uiso   1.00
W64    W     0.78096   0.32167   0.04890   0.00000  Uiso   1.00
Se65   Se    0.71554   0.39070   0.01968   0.00000  Uiso   1.00
Se66   Se    0.71586   0.38994   0.07877   0.00000  Uiso   1.00
W67    W     0.98265   0.32413   0.05110   0.00000  Uiso   1.00
Se68   Se    0.92150   0.39276   0.02080   0.00000  Uiso   1.00
Se69   Se    0.91067   0.39053   0.07929   0.00000  Uiso   1.00
W70    W     0.18324   0.32118   0.04940   0.00000  Uiso   1.00
Se71   Se    0.11839   0.39131   0.02092   0.00000  Uiso   1.00
Se72   Se    0.11730   0.38788   0.07987   0.00000  Uiso   1.00
W73    W     0.38665   0.32353   0.04957   0.00000  Uiso   1.00
Se74   Se    0.31973   0.39204   0.02017   0.00000  Uiso   1.00
Se75   Se    0.31503   0.38837   0.07862   0.00000  Uiso   1.00
Si76   Si    0.04483   0.11457   0.15741   0.00000  Uiso   1.00
Si77   Si    0.16643   0.11273   0.18236   0.00000  Uiso   1.00
Si78   Si    0.16636  -0.01105   0.20654   0.00000  Uiso   1.00
Si79   Si    0.04758  -0.00866   0.13301   0.00000  Uiso   1.00
Si80   Si    0.29391   0.11762   0.15752   0.00000  Uiso   1.00
Si81   Si    0.41299   0.11285   0.18140   0.00000  Uiso   1.00
Si82   Si    0.41454  -0.01462   0.20673   0.00000  Uiso   1.00
Si83   Si    0.29607  -0.01116   0.13308   0.00000  Uiso   1.00
Si84   Si    0.54129   0.11382   0.15721   0.00000  Uiso   1.00
Si85   Si    0.66124   0.11235   0.18258   0.00000  Uiso   1.00
Si86   Si    0.66163  -0.01145   0.20608   0.00000  Uiso   1.00
Si87   Si    0.54351  -0.00832   0.13336   0.00000  Uiso   1.00
Si88   Si    0.78780   0.11582   0.15771   0.00000  Uiso   1.00
Si89   Si    0.90969   0.11190   0.18195   0.00000  Uiso   1.00
Si90   Si    0.90857  -0.01351   0.20571   0.00000  Uiso   1.00
Si91   Si    0.79154  -0.00934   0.13284   0.00000  Uiso   1.00
Si92   Si    0.04147   0.36182   0.15799   0.00000  Uiso   1.00
Si93   Si    0.16380   0.35872   0.18198   0.00000  Uiso   1.00
Si94   Si    0.16388   0.23485   0.20599   0.00000  Uiso   1.00
Si95   Si    0.04628   0.23802   0.13348   0.00000  Uiso   1.00
Si96   Si    0.29056   0.36149   0.15703   0.00000  Uiso   1.00
Si97   Si    0.41156   0.35913   0.18142   0.00000  Uiso   1.00
Si98   Si    0.41122   0.23506   0.20683   0.00000  Uiso   1.00
Si99   Si    0.29332   0.23787   0.13397   0.00000  Uiso   1.00
Si100  Si    0.53809   0.36043   0.15714   0.00000  Uiso   1.00
Si101  Si    0.65966   0.35953   0.18255   0.00000  Uiso   1.00
Si102  Si    0.65886   0.23473   0.20569   0.00000  Uiso   1.00
Si103  Si    0.54095   0.23917   0.13363   0.00000  Uiso   1.00
Si104  Si    0.78514   0.36080   0.15755   0.00000  Uiso   1.00
Si105  Si    0.90888   0.36067   0.18195   0.00000  Uiso   1.00
Si106  Si    0.90634   0.23467   0.20605   0.00000  Uiso   1.00
Si107  Si    0.78842   0.23819   0.13359   0.00000  Uiso   1.00
Si108  Si    0.03974   0.60842   0.15780   0.00000  Uiso   1.00
Si109  Si    0.16173   0.60698   0.18215   0.00000  Uiso   1.00
Si110  Si    0.16101   0.48317   0.20603   0.00000  Uiso   1.00
Si111  Si    0.04294   0.48582   0.13352   0.00000  Uiso   1.00
Si112  Si    0.28795   0.60995   0.15722   0.00000  Uiso   1.00
Si113  Si    0.41003   0.60826   0.18186   0.00000  Uiso   1.00
Si114  Si    0.40849   0.48345   0.20655   0.00000  Uiso   1.00
Si115  Si    0.29041   0.48471   0.13363   0.00000  Uiso   1.00
Si116  Si    0.53465   0.60871   0.15769   0.00000  Uiso   1.00
Si117  Si    0.65764   0.60707   0.18217   0.00000  Uiso   1.00
Si118  Si    0.65635   0.48150   0.20574   0.00000  Uiso   1.00
Si119  Si    0.53863   0.48546   0.13345   0.00000  Uiso   1.00
Si120  Si    0.78361   0.60999   0.15793   0.00000  Uiso   1.00
Si121  Si    0.90369   0.60573   0.18156   0.00000  Uiso   1.00
Si122  Si    0.90358   0.48235   0.20603   0.00000  Uiso   1.00
Si123  Si    0.78590   0.48529   0.13299   0.00000  Uiso   1.00
Si124  Si    0.03365   0.85537   0.15755   0.00000  Uiso   1.00
Si125  Si    0.15884   0.85321   0.18240   0.00000  Uiso   1.00
Si126  Si    0.15872   0.72765   0.20623   0.00000  Uiso   1.00
Si127  Si    0.04090   0.73270   0.13325   0.00000  Uiso   1.00
Si128  Si    0.28518   0.85512   0.15646   0.00000  Uiso   1.00
Si129  Si    0.40842   0.85552   0.18238   0.00000  Uiso   1.00
Si130  Si    0.40621   0.72803   0.20621   0.00000  Uiso   1.00
Si131  Si    0.28818   0.73262   0.13371   0.00000  Uiso   1.00
Si132  Si    0.53207   0.85517   0.15725   0.00000  Uiso   1.00
Si133  Si    0.65498   0.85554   0.18221   0.00000  Uiso   1.00
Si134  Si    0.65488   0.72865   0.20604   0.00000  Uiso   1.00
Si135  Si    0.53606   0.73312   0.13333   0.00000  Uiso   1.00
Si136  Si    0.77909   0.85395   0.15723   0.00000  Uiso   1.00
Si137  Si    0.90587   0.85711   0.18242   0.00000  Uiso   1.00
Si138  Si    0.90177   0.72960   0.20657   0.00000  Uiso   1.00
Si139  Si    0.78290   0.73256   0.13338   0.00000  Uiso   1.00
loop_
_geom_bond_atom_site_label_1
_geom_bond_atom_site_label_2
_geom_bond_distance
_geom_bond_site_symmetry_2
_ccdc_geom_bond_type
W1     Se2     2.614   .     S
W1     Se62    2.533   .     S
W1     Se5     2.582   .     S
W1     Se3     2.581   .     S
W1     Se63    2.557   .     S
W1     Se6     2.563   .     S
W1     W16     3.189   .     S
W1     W73     3.140   .     S
W1     W4      3.209   .     S
W1     W13     3.215   .     S
W1     W19     3.173   .     S
W1     W61     3.226   .     S
Se2    W16     2.532   .     S
Se2    W13     2.553   .     S
Se2    Se3     3.598   .     S
Se3    W16     2.558   .     S
Se3    W13     2.580   .     S
W4     Se5     2.566   .     S
W4     Se65    2.543   .     S
W4     Se8     2.612   .     S
W4     Se6     2.626   .     S
W4     Se66    2.541   .     S
W4     Se9     2.579   .     S
W4     W19     3.196   .     S
W4     W61     3.220   .     S
W4     W7      3.291   .     S
W4     W22     3.227   .     S
W4     W64     3.199   .     S
Se5    W19     2.520   .     S
Se5    Se6     3.573   .     S
Se6    W19     2.548   .     S
W7     Se8     2.585   .     S
W7     Se68    2.516   .     S
W7     Se9     2.542   .     S
W7     Se69    2.544   .     S
W7     W22     3.160   .     S
W7     W64     3.266   .     S
W7     W67     3.157   .     S
W7     W10     3.241   1_655 S
W7     Se11    2.584   1_655 S
W7     Se12    2.597   1_655 S
W7     W25     3.165   1_655 S
Se8    W22     2.538   .     S
Se8    Se9     3.518   .     S
Se9    W22     2.516   .     S
W10    Se11    2.560   .     S
W10    Se71    2.533   .     S
W10    Se14    2.589   .     S
W10    Se12    2.554   .     S
W10    Se72    2.538   .     S
W10    Se15    2.578   .     S
W10    W25     3.158   .     S
W10    W13     3.164   .     S
W10    W28     3.185   .     S
W10    W70     3.171   .     S
W10    W7      3.241   1_455 S
W10    W67     3.211   1_455 S
Se11   W25     2.530   .     S
Se11   Se12    3.568   .     S
Se11   W7      2.584   1_455 S
Se12   W25     2.556   .     S
Se12   W7      2.597   1_455 S
W13    Se14    2.571   .     S
W13    Se74    2.542   .     S
W13    Se15    2.573   .     S
W13    Se75    2.518   .     S
W13    W28     3.167   .     S
W13    W70     3.214   .     S
W13    W16     3.131   .     S
W13    W73     3.203   .     S
Se14   W28     2.531   .     S
Se14   Se15    3.590   .     S
Se15   W28     2.545   .     S
W16    Se17    2.592   .     S
W16    Se20    2.568   .     S
W16    Se18    2.565   .     S
W16    Se21    2.585   .     S
W16    W31     3.157   .     S
W16    W19     3.196   .     S
W16    W28     3.153   .     S
W16    W34     3.231   .     S
Se17   W31     2.565   .     S
Se17   W28     2.592   .     S
Se17   Se18    3.621   .     S
Se18   W31     2.547   .     S
Se18   W28     2.559   .     S
W19    Se20    2.583   .     S
W19    Se23    2.586   .     S
W19    Se21    2.566   .     S
W19    Se24    2.572   .     S
W19    W34     3.173   .     S
W19    W22     3.344   .     S
W19    W37     3.265   .     S
Se20   W34     2.547   .     S
Se20   Se21    3.564   .     S
Se21   W34     2.553   .     S
W22    Se23    2.556   .     S
W22    Se24    2.596   .     S
W22    W37     3.223   .     S
W22    W25     3.251   1_655 S
W22    Se26    2.580   1_655 S
W22    Se27    2.587   1_655 S
W22    W40     3.188   1_655 S
Se23   W37     2.549   .     S
Se23   Se24    3.464   .     S
Se24   W37     2.533   .     S
W25    Se26    2.580   .     S
W25    Se29    2.580   .     S
W25    Se27    2.556   .     S
W25    Se30    2.581   .     S
W25    W40     3.188   .     S
W25    W28     3.172   .     S
W25    W43     3.225   .     S
W25    W7      3.165   1_455 S
W25    W22     3.251   1_455 S
Se26   W40     2.561   .     S
Se26   Se27    3.564   .     S
Se26   W22     2.580   1_455 S
Se27   W40     2.560   .     S
Se27   W22     2.587   1_455 S
W28    Se29    2.561   .     S
W28    Se30    2.571   .     S
W28    W43     3.165   .     S
W28    W31     3.165   .     S
Se29   W43     2.532   .     S
Se29   Se30    3.564   .     S
Se30   W43     2.547   .     S
W31    Se32    2.558   .     S
W31    Se35    2.563   .     S
W31    Se33    2.544   .     S
W31    Se36    2.595   .     S
W31    W34     3.164   .     S
W31    W43     3.173   .     S
W31    W46     3.231   1_565 S
W31    W49     3.317   1_565 S
Se32   W43     2.591   .     S
Se32   Se33    3.532   .     S
Se32   W46     2.563   1_565 S
Se33   W43     2.558   .     S
Se33   W46     2.577   1_565 S
W34    Se35    2.552   .     S
W34    Se38    2.574   .     S
W34    Se36    2.538   .     S
W34    Se39    2.584   .     S
W34    W37     3.273   .     S
W34    W49     3.232   1_565 S
W34    W52     3.384   1_565 S
Se35   Se36    3.517   .     S
Se35   W49     2.571   1_565 S
Se36   W49     2.583   1_565 S
W37    Se38    2.544   .     S
W37    Se39    2.567   .     S
W37    W40     3.287   1_655 S
W37    Se41    2.579   1_655 S
W37    Se42    2.564   1_655 S
W37    W52     3.285   1_565 S
W37    W55     3.363   1_665 S
Se38   Se39    3.411   .     S
Se38   W52     2.553   1_565 S
Se39   W52     2.559   1_565 S
W40    Se41    2.561   .     S
W40    Se44    2.571   .     S
W40    Se42    2.561   .     S
W40    Se45    2.574   .     S
W40    W43     3.220   .     S
W40    W22     3.188   1_455 S
W40    W37     3.287   1_455 S
W40    W55     3.301   1_565 S
W40    W58     3.330   1_565 S
Se41   Se42    3.413   .     S
Se41   W37     2.579   1_455 S
Se41   W55     2.561   1_565 S
Se42   W37     2.564   1_455 S
Se42   W55     2.564   1_565 S
W43    Se44    2.546   .     S
W43    Se45    2.565   .     S
W43    W46     3.264   1_565 S
W43    W58     3.250   1_565 S
Se44   Se45    3.477   .     S
Se44   W58     2.563   1_565 S
Se45   W58     2.574   1_565 S
W46    Se47    2.553   .     S
W46    Se50    2.584   .     S
W46    Se48    2.564   .     S
W46    Se51    2.573   .     S
W46    W61     3.242   .     S
W46    W49     3.160   .     S
W46    W58     3.210   .     S
W46    W64     3.277   .     S
W46    W31     3.231   1_545 S
W46    Se32    2.563   1_545 S
W46    W43     3.264   1_545 S
W46    Se33    2.577   1_545 S
Se47   W61     2.568   .     S
Se47   W58     2.580   .     S
Se47   Se48    3.535   .     S
Se48   W61     2.562   .     S
Se48   W58     2.583   .     S
W49    Se50    2.586   .     S
W49    Se53    2.576   .     S
W49    Se51    2.537   .     S
W49    Se54    2.605   .     S
W49    W64     3.241   .     S
W49    W52     3.236   .     S
W49    W67     3.319   .     S
W49    W31     3.317   1_545 S
W49    Se35    2.571   1_545 S
W49    W34     3.232   1_545 S
W49    Se36    2.583   1_545 S
Se50   W64     2.568   .     S
Se50   Se51    3.530   .     S
Se51   W64     2.550   .     S
W52    Se53    2.555   .     S
W52    Se54    2.586   .     S
W52    W67     3.217   .     S
W52    W37     3.285   1_545 S
W52    W34     3.384   1_545 S
W52    Se38    2.553   1_545 S
W52    Se39    2.559   1_545 S
W52    W55     3.307   1_655 S
W52    Se56    2.626   1_655 S
W52    Se57    2.577   1_655 S
W52    W70     3.235   1_655 S
Se53   W67     2.539   .     S
Se53   Se54    3.496   .     S
Se54   W67     2.547   .     S
W55    Se56    2.572   .     S
W55    Se59    2.600   .     S
W55    Se57    2.575   .     S
W55    Se60    2.600   .     S
W55    W70     3.223   .     S
W55    W58     3.205   .     S
W55    W73     3.257   .     S
W55    W52     3.307   1_455 S
W55    W40     3.301   1_545 S
W55    Se41    2.561   1_545 S
W55    W37     3.363   1_445 S
W55    Se42    2.564   1_545 S
Se56   W70     2.552   .     S
Se56   Se57    3.506   .     S
Se56   W52     2.626   1_455 S
Se57   W70     2.519   .     S
Se57   W52     2.577   1_455 S
W58    Se59    2.581   .     S
W58    Se60    2.560   .     S
W58    W73     3.255   .     S
W58    W61     3.231   .     S
W58    Se44    2.563   1_545 S
W58    W40     3.330   1_545 S
W58    W43     3.250   1_545 S
W58    Se45    2.574   1_545 S
Se59   W73     2.555   .     S
Se59   Se60    3.525   .     S
Se60   W73     2.528   .     S
W61    Se62    2.564   .     S
W61    Se65    2.601   .     S
W61    Se63    2.618   .     S
W61    Se66    2.554   .     S
W61    W64     3.170   .     S
W61    W73     3.200   .     S
Se62   W73     2.548   .     S
Se62   Se63    3.596   .     S
Se63   W73     2.623   .     S
W64    Se65    2.574   .     S
W64    Se68    2.575   .     S
W64    Se66    2.575   .     S
W64    Se69    2.606   .     S
W64    W67     3.235   .     S
Se65   Se66    3.560   .     S
W67    Se68    2.573   .     S
W67    Se69    2.557   .     S
W67    W10     3.211   1_655 S
W67    W70     3.256   1_655 S
W67    Se71    2.608   1_655 S
W67    Se72    2.587   1_655 S
Se68   Se69    3.525   .     S
W70    Se71    2.549   .     S
W70    Se74    2.577   .     S
W70    Se72    2.593   .     S
W70    Se75    2.576   .     S
W70    W73     3.259   .     S
W70    W67     3.256   1_455 S
W70    W52     3.235   1_455 S
Se71   Se72    3.551   .     S
Se71   W67     2.608   1_455 S
Se72   W67     2.587   1_455 S
W73    Se74    2.591   .     S
W73    Se75    2.573   .     S
Se74   Se75    3.521   .     S
Si76   Si95    2.435   .     S
Si76   Si79    2.485   .     S
Si76   Si77    2.498   .     S
Si76   Si89    2.598   1_455 S
Si77   Si94    2.442   .     S
Si77   Si78    2.458   .     S
Si77   Si80    2.494   .     S
Si78   Si125   2.577   1_545 S
Si79   Si124   2.544   1_545 S
Si80   Si99    2.393   .     S
Si80   Si83    2.555   .     S
Si80   Si81    2.445   .     S
Si81   Si98    2.504   .     S
Si81   Si82    2.557   .     S
Si81   Si84    2.506   .     S
Si82   Si129   2.515   1_545 S
Si83   Si128   2.493   1_545 S
Si84   Si103   2.460   .     S
Si84   Si87    2.448   .     S
Si84   Si85    2.490   .     S
Si85   Si102   2.426   .     S
Si85   Si86    2.437   .     S
Si85   Si88    2.492   .     S
Si86   Si133   2.536   1_545 S
Si87   Si132   2.544   1_545 S
Si88   Si107   2.434   .     S
Si88   Si91    2.534   .     S
Si88   Si89    2.489   .     S
Si89   Si106   2.473   .     S
Si89   Si90    2.457   .     S
Si89   Si76    2.598   1_655 S
Si90   Si137   2.492   1_545 S
Si91   Si136   2.558   1_545 S
Si92   Si111   2.461   .     S
Si92   Si95    2.510   .     S
Si92   Si93    2.481   .     S
Si92   Si105   2.554   1_455 S
Si93   Si110   2.489   .     S
Si93   Si94    2.453   .     S
Si93   Si96    2.502   .     S
Si96   Si115   2.424   .     S
Si96   Si99    2.443   .     S
Si96   Si97    2.473   .     S
Si97   Si114   2.528   .     S
Si97   Si98    2.504   .     S
Si97   Si100   2.484   .     S
Si100  Si119   2.453   .     S
Si100  Si103   2.429   .     S
Si100  Si101   2.508   .     S
Si101  Si118   2.430   .     S
Si101  Si102   2.430   .     S
Si101  Si104   2.496   .     S
Si104  Si123   2.476   .     S
Si104  Si107   2.465   .     S
Si104  Si105   2.494   .     S
Si105  Si122   2.471   .     S
Si105  Si106   2.467   .     S
Si105  Si92    2.554   1_655 S
Si108  Si127   2.470   .     S
Si108  Si111   2.476   .     S
Si108  Si109   2.478   .     S
Si108  Si121   2.584   1_455 S
Si109  Si126   2.443   .     S
Si109  Si110   2.443   .     S
Si109  Si112   2.492   .     S
Si112  Si131   2.418   .     S
Si112  Si115   2.481   .     S
Si112  Si113   2.492   .     S
Si113  Si130   2.446   .     S
Si113  Si114   2.479   .     S
Si113  Si116   2.461   .     S
Si116  Si135   2.463   .     S
Si116  Si119   2.488   .     S
Si116  Si117   2.498   .     S
Si117  Si134   2.445   .     S
Si117  Si118   2.451   .     S
Si117  Si120   2.465   .     S
Si120  Si139   2.460   .     S
Si120  Si123   2.521   .     S
Si120  Si121   2.446   .     S
Si121  Si138   2.510   .     S
Si121  Si122   2.462   .     S
Si121  Si108   2.584   1_655 S
Si124  Si127   2.504   .     S
Si124  Si125   2.543   .     S
Si124  Si79    2.544   1_565 S
Si124  Si137   2.541   1_455 S
Si125  Si126   2.468   .     S
Si125  Si128   2.537   .     S
Si125  Si78    2.577   1_565 S
Si128  Si131   2.419   .     S
Si128  Si129   2.541   .     S
Si128  Si83    2.493   1_565 S
Si129  Si130   2.479   .     S
Si129  Si132   2.488   .     S
Si129  Si82    2.515   1_565 S
Si132  Si135   2.461   .     S
Si132  Si133   2.501   .     S
Si132  Si87    2.544   1_565 S
Si133  Si134   2.486   .     S
Si133  Si136   2.496   .     S
Si133  Si86    2.536   1_565 S
Si136  Si139   2.449   .     S
Si136  Si137   2.543   .     S
Si136  Si91    2.558   1_565 S
Si137  Si138   2.479   .     S
Si137  Si90    2.492   1_565 S
Si137  Si124   2.541   1_655 S
